/*---------------------------------------------------------------------------*\
  =========                 |
  \\      /  F ield         | OpenFOAM: The Open Source CFD Toolbox
   \\    /   O peration     | Website:  https://openfoam.org
    \\  /    A nd           | Version:  9
     \\/     M anipulation  |
\*---------------------------------------------------------------------------*/
Build  : 9-89839ae3b8cd
Exec   : buoyantSimpleFoam -parallel
Date   : Apr 08 2022
Time   : 11:43:41
Host   : "0b4a0c9cd4c1"
PID    : 12376
I/O    : uncollated
Case   : /home/openfoam/STL_ThermalZones/STL_IGU_25_FH_25
nProcs : 16
Slaves : 
15
(
"0b4a0c9cd4c1.12377"
"0b4a0c9cd4c1.12378"
"0b4a0c9cd4c1.12379"
"0b4a0c9cd4c1.12380"
"0b4a0c9cd4c1.12381"
"0b4a0c9cd4c1.12382"
"0b4a0c9cd4c1.12383"
"0b4a0c9cd4c1.12384"
"0b4a0c9cd4c1.12385"
"0b4a0c9cd4c1.12386"
"0b4a0c9cd4c1.12387"
"0b4a0c9cd4c1.12388"
"0b4a0c9cd4c1.12389"
"0b4a0c9cd4c1.12390"
"0b4a0c9cd4c1.12391"
)

Pstream initialised with:
    floatTransfer      : 0
    nProcsSimpleSum    : 0
    commsType          : nonBlocking
    polling iterations : 0
sigFpe : Enabling floating point exception trapping (FOAM_SIGFPE).
fileModificationChecking : Monitoring run-time modified files using timeStampMaster (fileModificationSkew 10)
allowSystemOperations : Allowing user-supplied system call operations

// * * * * * * * * * * * * * * * * * * * * * * * * * * * * * * * * * * * * * //
Create time

Create mesh for time = 0


SIMPLE: Convergence criteria found
        p_rgh: tolerance 0.0001
        U: tolerance 0.0001
        h: tolerance 0.0001
        G: tolerance 1e-05
        "(k|epsilon|omega)": tolerance 0.0001

Reading thermophysical properties

Selecting thermodynamics package 
{
    type            heRhoThermo;
    mixture         pureMixture;
    transport       const;
    thermo          hConst;
    equationOfState perfectGas;
    specie          specie;
    energy          sensibleEnthalpy;
}

Reading field U

Reading/calculating face flux field phi

Creating turbulence model

Selecting turbulence model type RAS
Selecting RAS turbulence model kEpsilon
RAS
{
    model           kEpsilon;
    turbulence      off;
    printCoeffs     on;
    Cmu             0.09;
    C1              1.44;
    C2              1.92;
    C3              0;
    sigmak          1;
    sigmaEps        1.3;
}

Creating thermophysical transport model

Selecting thermophysical transport type RAS
Selecting default RAS thermophysical transport model unityLewisEddyDiffusivity

Reading g

Reading hRef
Calculating field g.h


Reading pRef
Reading field p_rgh

No MRF models present

Creating fvModels from "constant/fvModels"

Selecting finite volume model type radiation
    Name: radiation
Selecting radiationModel P1
Selecting absorptionEmissionModel constant
Selecting scatterModel none
Selecting soot model none
--> FOAM Warning : Creating fvConstraints from "system/fvOptions"

Selecting finite volume constraint type limitTemperature
    Name: limitTemperature
    - selecting all cells
    - selected 109358 cell(s) with volume 38.952

Starting time loop

Time = 1

DILUPBiCGStab:  Solving for Ux, Initial residual = 1, Final residual = 0.00346277, No Iterations 1
DILUPBiCGStab:  Solving for Uy, Initial residual = 1, Final residual = 0.00411961, No Iterations 1
DILUPBiCGStab:  Solving for Uz, Initial residual = 1, Final residual = 0.00234596, No Iterations 1
DICPCG:  Solving for G, Initial residual = 1, Final residual = 0.0928482, No Iterations 22
DILUPBiCGStab:  Solving for h, Initial residual = 1, Final residual = 0.00445918, No Iterations 1
DICPCG:  Solving for p_rgh, Initial residual = 0.690991, Final residual = 0.00669673, No Iterations 63
time step continuity errors : sum local = 0.0219778, global = 8.36865e-05, cumulative = 8.36865e-05
ExecutionTime = 0.11 s  ClockTime = 0 s

Time = 2

DILUPBiCGStab:  Solving for Ux, Initial residual = 0.381235, Final residual = 0.00102528, No Iterations 1
DILUPBiCGStab:  Solving for Uy, Initial residual = 0.307303, Final residual = 0.000797517, No Iterations 1
DILUPBiCGStab:  Solving for Uz, Initial residual = 0.268528, Final residual = 0.000592778, No Iterations 1
DICPCG:  Solving for G, Initial residual = 0.759009, Final residual = 0.0642496, No Iterations 17
DILUPBiCGStab:  Solving for h, Initial residual = 0.0403875, Final residual = 0.000289477, No Iterations 1
DICPCG:  Solving for p_rgh, Initial residual = 0.832663, Final residual = 0.00828926, No Iterations 68
time step continuity errors : sum local = 0.00857696, global = 1.15237e-05, cumulative = 9.52102e-05
ExecutionTime = 0.17 s  ClockTime = 0 s

Time = 3

DILUPBiCGStab:  Solving for Ux, Initial residual = 0.315349, Final residual = 0.000834748, No Iterations 1
DILUPBiCGStab:  Solving for Uy, Initial residual = 0.258846, Final residual = 0.000633813, No Iterations 1
DILUPBiCGStab:  Solving for Uz, Initial residual = 0.929376, Final residual = 0.00170256, No Iterations 1
DICPCG:  Solving for G, Initial residual = 0.554997, Final residual = 0.0478124, No Iterations 15
DILUPBiCGStab:  Solving for h, Initial residual = 0.0227215, Final residual = 0.000182008, No Iterations 1
DICPCG:  Solving for p_rgh, Initial residual = 0.807497, Final residual = 0.00682913, No Iterations 68
time step continuity errors : sum local = 0.00656338, global = -5.36146e-06, cumulative = 8.98488e-05
ExecutionTime = 0.23 s  ClockTime = 0 s

Time = 4

DILUPBiCGStab:  Solving for Ux, Initial residual = 0.288695, Final residual = 0.000740514, No Iterations 1
DILUPBiCGStab:  Solving for Uy, Initial residual = 0.267912, Final residual = 0.000717905, No Iterations 1
DILUPBiCGStab:  Solving for Uz, Initial residual = 0.16825, Final residual = 0.000335541, No Iterations 1
DICPCG:  Solving for G, Initial residual = 0.146901, Final residual = 0.0144589, No Iterations 17
DILUPBiCGStab:  Solving for h, Initial residual = 0.0170101, Final residual = 0.000153442, No Iterations 1
DICPCG:  Solving for p_rgh, Initial residual = 0.663318, Final residual = 0.00566002, No Iterations 65
time step continuity errors : sum local = 0.00384598, global = 5.58136e-06, cumulative = 9.54301e-05
ExecutionTime = 0.3 s  ClockTime = 0 s

Time = 5

DILUPBiCGStab:  Solving for Ux, Initial residual = 0.238562, Final residual = 0.000642058, No Iterations 1
DILUPBiCGStab:  Solving for Uy, Initial residual = 0.233823, Final residual = 0.000568862, No Iterations 1
DILUPBiCGStab:  Solving for Uz, Initial residual = 0.806994, Final residual = 0.00217629, No Iterations 1
DICPCG:  Solving for G, Initial residual = 0.0311044, Final residual = 0.00284472, No Iterations 14
DILUPBiCGStab:  Solving for h, Initial residual = 0.0136187, Final residual = 0.000127881, No Iterations 1
DICPCG:  Solving for p_rgh, Initial residual = 0.67392, Final residual = 0.00529196, No Iterations 65
time step continuity errors : sum local = 0.00196281, global = 5.08453e-07, cumulative = 9.59386e-05
ExecutionTime = 0.36 s  ClockTime = 1 s

Time = 6

DILUPBiCGStab:  Solving for Ux, Initial residual = 0.225317, Final residual = 0.000546627, No Iterations 1
DILUPBiCGStab:  Solving for Uy, Initial residual = 0.236524, Final residual = 0.000546464, No Iterations 1
DILUPBiCGStab:  Solving for Uz, Initial residual = 0.313696, Final residual = 0.000726086, No Iterations 1
DICPCG:  Solving for G, Initial residual = 0.0120182, Final residual = 0.00119633, No Iterations 18
DILUPBiCGStab:  Solving for h, Initial residual = 0.0115909, Final residual = 0.000113641, No Iterations 1
DICPCG:  Solving for p_rgh, Initial residual = 0.653434, Final residual = 0.00524015, No Iterations 65
time step continuity errors : sum local = 0.00128307, global = -4.0737e-06, cumulative = 9.18649e-05
ExecutionTime = 0.43 s  ClockTime = 1 s

Time = 7

DILUPBiCGStab:  Solving for Ux, Initial residual = 0.144527, Final residual = 0.000383733, No Iterations 1
DILUPBiCGStab:  Solving for Uy, Initial residual = 0.155639, Final residual = 0.000441434, No Iterations 1
DILUPBiCGStab:  Solving for Uz, Initial residual = 0.529054, Final residual = 0.00128092, No Iterations 1
DICPCG:  Solving for G, Initial residual = 0.00691765, Final residual = 0.000627339, No Iterations 19
DILUPBiCGStab:  Solving for h, Initial residual = 0.0102553, Final residual = 2.78634e-06, No Iterations 1
DICPCG:  Solving for p_rgh, Initial residual = 0.572524, Final residual = 0.00492107, No Iterations 64
time step continuity errors : sum local = 0.00071061, global = 2.92866e-07, cumulative = 9.21578e-05
ExecutionTime = 0.5 s  ClockTime = 1 s

Time = 8

DILUPBiCGStab:  Solving for Ux, Initial residual = 0.078405, Final residual = 0.000189459, No Iterations 1
DILUPBiCGStab:  Solving for Uy, Initial residual = 0.101181, Final residual = 0.000221968, No Iterations 1
DILUPBiCGStab:  Solving for Uz, Initial residual = 0.257919, Final residual = 0.000547562, No Iterations 1
DICPCG:  Solving for G, Initial residual = 0.00529927, Final residual = 0.000499568, No Iterations 21
DILUPBiCGStab:  Solving for h, Initial residual = 0.00909036, Final residual = 2.56535e-06, No Iterations 1
DICPCG:  Solving for p_rgh, Initial residual = 0.512728, Final residual = 0.00437358, No Iterations 64
time step continuity errors : sum local = 0.000450759, global = -5.2233e-08, cumulative = 9.21055e-05
ExecutionTime = 0.56 s  ClockTime = 1 s

Time = 9

DILUPBiCGStab:  Solving for Ux, Initial residual = 0.0718911, Final residual = 0.000191259, No Iterations 1
DILUPBiCGStab:  Solving for Uy, Initial residual = 0.089639, Final residual = 0.000234461, No Iterations 1
DILUPBiCGStab:  Solving for Uz, Initial residual = 0.205803, Final residual = 0.000529476, No Iterations 1
DICPCG:  Solving for G, Initial residual = 0.00470149, Final residual = 0.000356523, No Iterations 22
DILUPBiCGStab:  Solving for h, Initial residual = 0.00809478, Final residual = 2.36205e-06, No Iterations 1
DICPCG:  Solving for p_rgh, Initial residual = 0.340445, Final residual = 0.0030411, No Iterations 64
time step continuity errors : sum local = 0.00023284, global = 5.98228e-08, cumulative = 9.21653e-05
ExecutionTime = 0.63 s  ClockTime = 1 s

Time = 10

DILUPBiCGStab:  Solving for Ux, Initial residual = 0.0439611, Final residual = 0.000104658, No Iterations 1
DILUPBiCGStab:  Solving for Uy, Initial residual = 0.0636971, Final residual = 0.00013634, No Iterations 1
DILUPBiCGStab:  Solving for Uz, Initial residual = 0.141986, Final residual = 0.00035845, No Iterations 1
DICPCG:  Solving for G, Initial residual = 0.00423625, Final residual = 0.000331076, No Iterations 22
DILUPBiCGStab:  Solving for h, Initial residual = 0.00730015, Final residual = 2.18878e-06, No Iterations 1
DICPCG:  Solving for p_rgh, Initial residual = 0.27226, Final residual = 0.00233518, No Iterations 63
time step continuity errors : sum local = 0.000152983, global = 2.93712e-07, cumulative = 9.24591e-05
ExecutionTime = 0.71 s  ClockTime = 1 s

Time = 11

DILUPBiCGStab:  Solving for Ux, Initial residual = 0.0439061, Final residual = 0.000100097, No Iterations 1
DILUPBiCGStab:  Solving for Uy, Initial residual = 0.0613218, Final residual = 0.000141808, No Iterations 1
DILUPBiCGStab:  Solving for Uz, Initial residual = 0.0615314, Final residual = 0.00015804, No Iterations 1
DICPCG:  Solving for G, Initial residual = 0.00386979, Final residual = 0.000308633, No Iterations 22
DILUPBiCGStab:  Solving for h, Initial residual = 0.00665769, Final residual = 2.04962e-06, No Iterations 1
DICPCG:  Solving for p_rgh, Initial residual = 0.165662, Final residual = 0.00157714, No Iterations 25
time step continuity errors : sum local = 8.91019e-05, global = 2.68026e-05, cumulative = 0.000119262
ExecutionTime = 0.78 s  ClockTime = 1 s

Time = 12

DILUPBiCGStab:  Solving for Ux, Initial residual = 0.0321276, Final residual = 6.76615e-05, No Iterations 1
DILUPBiCGStab:  Solving for Uy, Initial residual = 0.0470277, Final residual = 0.00010464, No Iterations 1
DILUPBiCGStab:  Solving for Uz, Initial residual = 0.0604335, Final residual = 0.000150152, No Iterations 1
DICPCG:  Solving for G, Initial residual = 0.00355198, Final residual = 0.000284683, No Iterations 22
DILUPBiCGStab:  Solving for h, Initial residual = 0.00613459, Final residual = 1.93786e-06, No Iterations 1
DICPCG:  Solving for p_rgh, Initial residual = 0.127719, Final residual = 0.00121518, No Iterations 61
time step continuity errors : sum local = 6.30384e-05, global = -9.80293e-08, cumulative = 0.000119164
ExecutionTime = 0.84 s  ClockTime = 1 s

Time = 13

DILUPBiCGStab:  Solving for Ux, Initial residual = 0.0290767, Final residual = 6.72696e-05, No Iterations 1
DILUPBiCGStab:  Solving for Uy, Initial residual = 0.0432765, Final residual = 0.000107042, No Iterations 1
DILUPBiCGStab:  Solving for Uz, Initial residual = 0.0338403, Final residual = 7.85488e-05, No Iterations 1
DICPCG:  Solving for G, Initial residual = 0.00328253, Final residual = 0.000265248, No Iterations 22
DILUPBiCGStab:  Solving for h, Initial residual = 0.00568255, Final residual = 1.84364e-06, No Iterations 1
DICPCG:  Solving for p_rgh, Initial residual = 0.0872564, Final residual = 0.000826829, No Iterations 59
time step continuity errors : sum local = 4.06084e-05, global = 6.25287e-08, cumulative = 0.000119226
ExecutionTime = 0.91 s  ClockTime = 1 s

Time = 14

DILUPBiCGStab:  Solving for Ux, Initial residual = 0.0261959, Final residual = 6.06919e-05, No Iterations 1
DILUPBiCGStab:  Solving for Uy, Initial residual = 0.0385045, Final residual = 0.000100799, No Iterations 1
DILUPBiCGStab:  Solving for Uz, Initial residual = 0.0352014, Final residual = 8.8877e-05, No Iterations 1
DICPCG:  Solving for G, Initial residual = 0.00304612, Final residual = 0.000241492, No Iterations 22
DILUPBiCGStab:  Solving for h, Initial residual = 0.00529484, Final residual = 1.76465e-06, No Iterations 1
DICPCG:  Solving for p_rgh, Initial residual = 0.069936, Final residual = 0.000626176, No Iterations 21
time step continuity errors : sum local = 2.94138e-05, global = -8.42748e-06, cumulative = 0.000110799
ExecutionTime = 0.97 s  ClockTime = 1 s

Time = 15

DILUPBiCGStab:  Solving for Ux, Initial residual = 0.0251843, Final residual = 5.70995e-05, No Iterations 1
DILUPBiCGStab:  Solving for Uy, Initial residual = 0.0363213, Final residual = 9.73874e-05, No Iterations 1
DILUPBiCGStab:  Solving for Uz, Initial residual = 0.0255641, Final residual = 5.82591e-05, No Iterations 1
DICPCG:  Solving for G, Initial residual = 0.0028354, Final residual = 0.000222305, No Iterations 22
DILUPBiCGStab:  Solving for h, Initial residual = 0.00496144, Final residual = 1.6986e-06, No Iterations 1
DICPCG:  Solving for p_rgh, Initial residual = 0.0561808, Final residual = 0.000518998, No Iterations 20
time step continuity errors : sum local = 2.34276e-05, global = 6.20356e-06, cumulative = 0.000117002
ExecutionTime = 1.03 s  ClockTime = 1 s

Time = 16

DILUPBiCGStab:  Solving for Ux, Initial residual = 0.0239537, Final residual = 5.37064e-05, No Iterations 1
DILUPBiCGStab:  Solving for Uy, Initial residual = 0.0339234, Final residual = 9.47829e-05, No Iterations 1
DILUPBiCGStab:  Solving for Uz, Initial residual = 0.0235718, Final residual = 5.21939e-05, No Iterations 1
DICPCG:  Solving for G, Initial residual = 0.0026505, Final residual = 0.000205866, No Iterations 22
DILUPBiCGStab:  Solving for h, Initial residual = 0.00467219, Final residual = 1.64072e-06, No Iterations 1
DICPCG:  Solving for p_rgh, Initial residual = 0.0502529, Final residual = 0.000502476, No Iterations 54
time step continuity errors : sum local = 2.18029e-05, global = 4.95407e-09, cumulative = 0.000117007
ExecutionTime = 1.09 s  ClockTime = 1 s

Time = 17

DILUPBiCGStab:  Solving for Ux, Initial residual = 0.0225874, Final residual = 5.14832e-05, No Iterations 1
DILUPBiCGStab:  Solving for Uy, Initial residual = 0.0317909, Final residual = 9.24232e-05, No Iterations 1
DILUPBiCGStab:  Solving for Uz, Initial residual = 0.0228237, Final residual = 5.09444e-05, No Iterations 1
DICPCG:  Solving for G, Initial residual = 0.00248719, Final residual = 0.000247942, No Iterations 21
DILUPBiCGStab:  Solving for h, Initial residual = 0.00442943, Final residual = 1.58476e-06, No Iterations 1
DICPCG:  Solving for p_rgh, Initial residual = 0.0460857, Final residual = 0.000454922, No Iterations 55
time step continuity errors : sum local = 1.91096e-05, global = 2.99148e-09, cumulative = 0.00011701
ExecutionTime = 1.16 s  ClockTime = 1 s

Time = 18

DILUPBiCGStab:  Solving for Ux, Initial residual = 0.0215533, Final residual = 5.03976e-05, No Iterations 1
DILUPBiCGStab:  Solving for Uy, Initial residual = 0.0300522, Final residual = 8.87883e-05, No Iterations 1
DILUPBiCGStab:  Solving for Uz, Initial residual = 0.0221946, Final residual = 4.97047e-05, No Iterations 1
DICPCG:  Solving for G, Initial residual = 0.00235028, Final residual = 0.000227852, No Iterations 21
DILUPBiCGStab:  Solving for h, Initial residual = 0.00421768, Final residual = 1.52799e-06, No Iterations 1
DICPCG:  Solving for p_rgh, Initial residual = 0.0424929, Final residual = 0.000424513, No Iterations 57
time step continuity errors : sum local = 1.72601e-05, global = 7.75955e-08, cumulative = 0.000117088
ExecutionTime = 1.22 s  ClockTime = 1 s

Time = 19

DILUPBiCGStab:  Solving for Ux, Initial residual = 0.0207516, Final residual = 4.98227e-05, No Iterations 1
DILUPBiCGStab:  Solving for Uy, Initial residual = 0.0284659, Final residual = 8.3196e-05, No Iterations 1
DILUPBiCGStab:  Solving for Uz, Initial residual = 0.0207561, Final residual = 4.57033e-05, No Iterations 1
DICPCG:  Solving for G, Initial residual = 0.00220744, Final residual = 0.000207931, No Iterations 21
DILUPBiCGStab:  Solving for h, Initial residual = 0.00403512, Final residual = 1.46988e-06, No Iterations 1
DICPCG:  Solving for p_rgh, Initial residual = 0.0398392, Final residual = 0.0003789, No Iterations 52
time step continuity errors : sum local = 1.49065e-05, global = 9.82487e-08, cumulative = 0.000117186
ExecutionTime = 1.29 s  ClockTime = 1 s

Time = 20

DILUPBiCGStab:  Solving for Ux, Initial residual = 0.0200498, Final residual = 4.91171e-05, No Iterations 1
DILUPBiCGStab:  Solving for Uy, Initial residual = 0.0270502, Final residual = 7.73386e-05, No Iterations 1
DILUPBiCGStab:  Solving for Uz, Initial residual = 0.0195738, Final residual = 4.25119e-05, No Iterations 1
DICPCG:  Solving for G, Initial residual = 0.00233414, Final residual = 0.00021043, No Iterations 17
DILUPBiCGStab:  Solving for h, Initial residual = 0.00386913, Final residual = 1.41404e-06, No Iterations 1
DICPCG:  Solving for p_rgh, Initial residual = 0.0371982, Final residual = 0.000356381, No Iterations 52
time step continuity errors : sum local = 1.36206e-05, global = 1.03175e-08, cumulative = 0.000117196
ExecutionTime = 1.37 s  ClockTime = 2 s

Time = 21

DILUPBiCGStab:  Solving for Ux, Initial residual = 0.0193703, Final residual = 4.92108e-05, No Iterations 1
DILUPBiCGStab:  Solving for Uy, Initial residual = 0.0257476, Final residual = 7.17344e-05, No Iterations 1
DILUPBiCGStab:  Solving for Uz, Initial residual = 0.0188568, Final residual = 4.04257e-05, No Iterations 1
DICPCG:  Solving for G, Initial residual = 0.00197455, Final residual = 0.000175857, No Iterations 21
DILUPBiCGStab:  Solving for h, Initial residual = 0.00371613, Final residual = 1.36642e-06, No Iterations 1
DICPCG:  Solving for p_rgh, Initial residual = 0.0345444, Final residual = 0.000344929, No Iterations 50
time step continuity errors : sum local = 1.28036e-05, global = 1.7315e-07, cumulative = 0.000117369
ExecutionTime = 1.43 s  ClockTime = 2 s

Time = 22

DILUPBiCGStab:  Solving for Ux, Initial residual = 0.0186751, Final residual = 4.89524e-05, No Iterations 1
DILUPBiCGStab:  Solving for Uy, Initial residual = 0.0244354, Final residual = 6.51174e-05, No Iterations 1
DILUPBiCGStab:  Solving for Uz, Initial residual = 0.0180685, Final residual = 3.85295e-05, No Iterations 1
DICPCG:  Solving for G, Initial residual = 0.00186049, Final residual = 0.000162884, No Iterations 21
DILUPBiCGStab:  Solving for h, Initial residual = 0.00358062, Final residual = 1.31985e-06, No Iterations 1
DICPCG:  Solving for p_rgh, Initial residual = 0.0322387, Final residual = 0.000308681, No Iterations 51
time step continuity errors : sum local = 1.11342e-05, global = 1.03906e-08, cumulative = 0.00011738
ExecutionTime = 1.5 s  ClockTime = 2 s

Time = 23

DILUPBiCGStab:  Solving for Ux, Initial residual = 0.0180965, Final residual = 4.86991e-05, No Iterations 1
DILUPBiCGStab:  Solving for Uy, Initial residual = 0.0233149, Final residual = 5.92568e-05, No Iterations 1
DILUPBiCGStab:  Solving for Uz, Initial residual = 0.0173142, Final residual = 3.69045e-05, No Iterations 1
DICPCG:  Solving for G, Initial residual = 0.00189821, Final residual = 0.000177532, No Iterations 21
DILUPBiCGStab:  Solving for h, Initial residual = 0.003461, Final residual = 1.27503e-06, No Iterations 1
DICPCG:  Solving for p_rgh, Initial residual = 0.0300248, Final residual = 0.000288543, No Iterations 12
time step continuity errors : sum local = 1.00978e-05, global = -2.84324e-06, cumulative = 0.000114537
ExecutionTime = 1.57 s  ClockTime = 2 s

Time = 24

DILUPBiCGStab:  Solving for Ux, Initial residual = 0.0175741, Final residual = 4.78094e-05, No Iterations 1
DILUPBiCGStab:  Solving for Uy, Initial residual = 0.02228, Final residual = 5.48114e-05, No Iterations 1
DILUPBiCGStab:  Solving for Uz, Initial residual = 0.016737, Final residual = 3.49764e-05, No Iterations 1
DICPCG:  Solving for G, Initial residual = 0.00181814, Final residual = 0.000173315, No Iterations 17
DILUPBiCGStab:  Solving for h, Initial residual = 0.00335148, Final residual = 1.23437e-06, No Iterations 1
DICPCG:  Solving for p_rgh, Initial residual = 0.0279433, Final residual = 0.000276282, No Iterations 47
time step continuity errors : sum local = 9.44199e-06, global = -1.29261e-07, cumulative = 0.000114407
ExecutionTime = 1.65 s  ClockTime = 2 s

Time = 25

DILUPBiCGStab:  Solving for Ux, Initial residual = 0.0171128, Final residual = 4.75355e-05, No Iterations 1
DILUPBiCGStab:  Solving for Uy, Initial residual = 0.021279, Final residual = 5.12766e-05, No Iterations 1
DILUPBiCGStab:  Solving for Uz, Initial residual = 0.0161139, Final residual = 3.34468e-05, No Iterations 1
DICPCG:  Solving for G, Initial residual = 0.00162713, Final residual = 0.000162533, No Iterations 20
DILUPBiCGStab:  Solving for h, Initial residual = 0.00325092, Final residual = 1.19711e-06, No Iterations 1
DICPCG:  Solving for p_rgh, Initial residual = 0.0259936, Final residual = 0.0002461, No Iterations 15
time step continuity errors : sum local = 8.20477e-06, global = 2.37877e-06, cumulative = 0.000116786
ExecutionTime = 1.71 s  ClockTime = 2 s

Time = 26

DILUPBiCGStab:  Solving for Ux, Initial residual = 0.0166929, Final residual = 4.70025e-05, No Iterations 1
DILUPBiCGStab:  Solving for Uy, Initial residual = 0.0203544, Final residual = 4.90727e-05, No Iterations 1
DILUPBiCGStab:  Solving for Uz, Initial residual = 0.0155673, Final residual = 3.38402e-05, No Iterations 1
DICPCG:  Solving for G, Initial residual = 0.00154177, Final residual = 0.000148432, No Iterations 20
DILUPBiCGStab:  Solving for h, Initial residual = 0.00315933, Final residual = 1.16192e-06, No Iterations 1
DICPCG:  Solving for p_rgh, Initial residual = 0.0244594, Final residual = 0.000225653, No Iterations 46
time step continuity errors : sum local = 7.3576e-06, global = -2.04071e-08, cumulative = 0.000116766
ExecutionTime = 1.78 s  ClockTime = 2 s

Time = 27

DILUPBiCGStab:  Solving for Ux, Initial residual = 0.016244, Final residual = 4.61645e-05, No Iterations 1
DILUPBiCGStab:  Solving for Uy, Initial residual = 0.0195142, Final residual = 4.76113e-05, No Iterations 1
DILUPBiCGStab:  Solving for Uz, Initial residual = 0.0151638, Final residual = 3.35971e-05, No Iterations 1
DICPCG:  Solving for G, Initial residual = 0.00147563, Final residual = 0.000141793, No Iterations 20
DILUPBiCGStab:  Solving for h, Initial residual = 0.00307489, Final residual = 1.12934e-06, No Iterations 1
DICPCG:  Solving for p_rgh, Initial residual = 0.0230992, Final residual = 0.000213452, No Iterations 12
time step continuity errors : sum local = 6.82296e-06, global = -1.289e-06, cumulative = 0.000115477
ExecutionTime = 1.83 s  ClockTime = 2 s

Time = 28

DILUPBiCGStab:  Solving for Ux, Initial residual = 0.0158871, Final residual = 4.53378e-05, No Iterations 1
DILUPBiCGStab:  Solving for Uy, Initial residual = 0.0187468, Final residual = 4.62234e-05, No Iterations 1
DILUPBiCGStab:  Solving for Uz, Initial residual = 0.0147199, Final residual = 3.28706e-05, No Iterations 1
DICPCG:  Solving for G, Initial residual = 0.0014176, Final residual = 0.00013163, No Iterations 20
DILUPBiCGStab:  Solving for h, Initial residual = 0.00299692, Final residual = 1.09947e-06, No Iterations 1
DICPCG:  Solving for p_rgh, Initial residual = 0.0218078, Final residual = 0.000206783, No Iterations 47
time step continuity errors : sum local = 6.48231e-06, global = -6.66953e-08, cumulative = 0.00011541
ExecutionTime = 1.9 s  ClockTime = 2 s

Time = 29

DILUPBiCGStab:  Solving for Ux, Initial residual = 0.0155592, Final residual = 4.45473e-05, No Iterations 1
DILUPBiCGStab:  Solving for Uy, Initial residual = 0.0180117, Final residual = 4.46496e-05, No Iterations 1
DILUPBiCGStab:  Solving for Uz, Initial residual = 0.0142637, Final residual = 3.20296e-05, No Iterations 1
DICPCG:  Solving for G, Initial residual = 0.00136363, Final residual = 0.000124556, No Iterations 20
DILUPBiCGStab:  Solving for h, Initial residual = 0.00292442, Final residual = 1.07175e-06, No Iterations 1
DICPCG:  Solving for p_rgh, Initial residual = 0.0206277, Final residual = 0.000190856, No Iterations 13
time step continuity errors : sum local = 5.8703e-06, global = -1.12681e-07, cumulative = 0.000115297
ExecutionTime = 1.95 s  ClockTime = 2 s

Time = 30

DILUPBiCGStab:  Solving for Ux, Initial residual = 0.0152259, Final residual = 4.36568e-05, No Iterations 1
DILUPBiCGStab:  Solving for Uy, Initial residual = 0.0173209, Final residual = 4.33328e-05, No Iterations 1
DILUPBiCGStab:  Solving for Uz, Initial residual = 0.0138941, Final residual = 3.12919e-05, No Iterations 1
DICPCG:  Solving for G, Initial residual = 0.00131322, Final residual = 0.0001153, No Iterations 20
DILUPBiCGStab:  Solving for h, Initial residual = 0.00285689, Final residual = 1.04599e-06, No Iterations 1
DICPCG:  Solving for p_rgh, Initial residual = 0.0195446, Final residual = 0.000194913, No Iterations 14
time step continuity errors : sum local = 5.89504e-06, global = 7.55482e-07, cumulative = 0.000116053
ExecutionTime = 2.02 s  ClockTime = 2 s

Time = 31

DILUPBiCGStab:  Solving for Ux, Initial residual = 0.0149051, Final residual = 4.27581e-05, No Iterations 1
DILUPBiCGStab:  Solving for Uy, Initial residual = 0.016668, Final residual = 4.1996e-05, No Iterations 1
DILUPBiCGStab:  Solving for Uz, Initial residual = 0.013545, Final residual = 3.05821e-05, No Iterations 1
DICPCG:  Solving for G, Initial residual = 0.00126641, Final residual = 0.000108672, No Iterations 20
DILUPBiCGStab:  Solving for h, Initial residual = 0.00279366, Final residual = 1.0221e-06, No Iterations 1
DICPCG:  Solving for p_rgh, Initial residual = 0.0185859, Final residual = 0.00017125, No Iterations 23
time step continuity errors : sum local = 5.09861e-06, global = 1.12502e-06, cumulative = 0.000117178
ExecutionTime = 2.08 s  ClockTime = 2 s

Time = 32

DILUPBiCGStab:  Solving for Ux, Initial residual = 0.0145817, Final residual = 4.18213e-05, No Iterations 1
DILUPBiCGStab:  Solving for Uy, Initial residual = 0.0160541, Final residual = 4.0697e-05, No Iterations 1
DILUPBiCGStab:  Solving for Uz, Initial residual = 0.0132099, Final residual = 2.98754e-05, No Iterations 1
DICPCG:  Solving for G, Initial residual = 0.00122366, Final residual = 0.000121559, No Iterations 19
DILUPBiCGStab:  Solving for h, Initial residual = 0.00273451, Final residual = 9.99953e-07, No Iterations 1
DICPCG:  Solving for p_rgh, Initial residual = 0.0176954, Final residual = 0.000170101, No Iterations 13
time step continuity errors : sum local = 4.99036e-06, global = 1.48022e-06, cumulative = 0.000118658
ExecutionTime = 2.14 s  ClockTime = 2 s

Time = 33

DILUPBiCGStab:  Solving for Ux, Initial residual = 0.0142902, Final residual = 4.09254e-05, No Iterations 1
DILUPBiCGStab:  Solving for Uy, Initial residual = 0.0154814, Final residual = 3.94211e-05, No Iterations 1
DILUPBiCGStab:  Solving for Uz, Initial residual = 0.0128755, Final residual = 2.91396e-05, No Iterations 1
DICPCG:  Solving for G, Initial residual = 0.00119135, Final residual = 0.000117916, No Iterations 19
DILUPBiCGStab:  Solving for h, Initial residual = 0.00267914, Final residual = 9.79358e-07, No Iterations 1
DICPCG:  Solving for p_rgh, Initial residual = 0.0168445, Final residual = 0.000160722, No Iterations 16
time step continuity errors : sum local = 4.65098e-06, global = 1.64056e-06, cumulative = 0.000120299
ExecutionTime = 2.21 s  ClockTime = 2 s

Time = 34

DILUPBiCGStab:  Solving for Ux, Initial residual = 0.0140043, Final residual = 4.00427e-05, No Iterations 1
DILUPBiCGStab:  Solving for Uy, Initial residual = 0.0149332, Final residual = 3.81534e-05, No Iterations 1
DILUPBiCGStab:  Solving for Uz, Initial residual = 0.0125582, Final residual = 2.84424e-05, No Iterations 1
DICPCG:  Solving for G, Initial residual = 0.0011538, Final residual = 0.000113953, No Iterations 18
DILUPBiCGStab:  Solving for h, Initial residual = 0.00262716, Final residual = 9.60257e-07, No Iterations 1
DICPCG:  Solving for p_rgh, Initial residual = 0.0160777, Final residual = 0.000146003, No Iterations 49
time step continuity errors : sum local = 4.17047e-06, global = 4.55463e-08, cumulative = 0.000120344
ExecutionTime = 2.27 s  ClockTime = 2 s

Time = 35

DILUPBiCGStab:  Solving for Ux, Initial residual = 0.0136931, Final residual = 3.90951e-05, No Iterations 1
DILUPBiCGStab:  Solving for Uy, Initial residual = 0.0144059, Final residual = 3.69902e-05, No Iterations 1
DILUPBiCGStab:  Solving for Uz, Initial residual = 0.0122808, Final residual = 2.77773e-05, No Iterations 1
DICPCG:  Solving for G, Initial residual = 0.00112394, Final residual = 0.000110718, No Iterations 18
DILUPBiCGStab:  Solving for h, Initial residual = 0.00257817, Final residual = 9.425e-07, No Iterations 1
DICPCG:  Solving for p_rgh, Initial residual = 0.0154081, Final residual = 0.000153037, No Iterations 16
time step continuity errors : sum local = 4.31914e-06, global = -8.0345e-07, cumulative = 0.000119541
ExecutionTime = 2.34 s  ClockTime = 3 s

Time = 36

DILUPBiCGStab:  Solving for Ux, Initial residual = 0.0134219, Final residual = 3.82485e-05, No Iterations 1
DILUPBiCGStab:  Solving for Uy, Initial residual = 0.0139162, Final residual = 3.58563e-05, No Iterations 1
DILUPBiCGStab:  Solving for Uz, Initial residual = 0.0119837, Final residual = 2.70925e-05, No Iterations 1
DICPCG:  Solving for G, Initial residual = 0.00109161, Final residual = 0.000104939, No Iterations 18
DILUPBiCGStab:  Solving for h, Initial residual = 0.00253211, Final residual = 9.2605e-07, No Iterations 1
DICPCG:  Solving for p_rgh, Initial residual = 0.0147399, Final residual = 0.000133466, No Iterations 54
time step continuity errors : sum local = 3.72272e-06, global = -2.47476e-08, cumulative = 0.000119516
ExecutionTime = 2.4 s  ClockTime = 3 s

Time = 37

DILUPBiCGStab:  Solving for Ux, Initial residual = 0.0131477, Final residual = 3.73433e-05, No Iterations 1
DILUPBiCGStab:  Solving for Uy, Initial residual = 0.0134888, Final residual = 3.33878e-05, No Iterations 1
DILUPBiCGStab:  Solving for Uz, Initial residual = 0.0116739, Final residual = 2.64165e-05, No Iterations 1
DICPCG:  Solving for G, Initial residual = 0.00115326, Final residual = 0.000115153, No Iterations 15
DILUPBiCGStab:  Solving for h, Initial residual = 0.00248874, Final residual = 9.10872e-07, No Iterations 1
DICPCG:  Solving for p_rgh, Initial residual = 0.0141, Final residual = 0.000138886, No Iterations 14
time step continuity errors : sum local = 3.83616e-06, global = 4.71e-07, cumulative = 0.000119987
ExecutionTime = 2.45 s  ClockTime = 3 s

Time = 38

DILUPBiCGStab:  Solving for Ux, Initial residual = 0.0128707, Final residual = 3.65305e-05, No Iterations 1
DILUPBiCGStab:  Solving for Uy, Initial residual = 0.0130192, Final residual = 3.30959e-05, No Iterations 1
DILUPBiCGStab:  Solving for Uz, Initial residual = 0.0114493, Final residual = 2.26377e-05, No Iterations 1
DICPCG:  Solving for G, Initial residual = 0.00114536, Final residual = 0.000113792, No Iterations 17
DILUPBiCGStab:  Solving for h, Initial residual = 0.00244771, Final residual = 8.96778e-07, No Iterations 1
DICPCG:  Solving for p_rgh, Initial residual = 0.0135705, Final residual = 0.000109899, No Iterations 49
time step continuity errors : sum local = 2.99774e-06, global = 2.48031e-08, cumulative = 0.000120012
ExecutionTime = 2.51 s  ClockTime = 3 s

Time = 39

DILUPBiCGStab:  Solving for Ux, Initial residual = 0.0125819, Final residual = 3.55958e-05, No Iterations 1
DILUPBiCGStab:  Solving for Uy, Initial residual = 0.0125848, Final residual = 3.17751e-05, No Iterations 1
DILUPBiCGStab:  Solving for Uz, Initial residual = 0.0112084, Final residual = 2.33874e-05, No Iterations 1
DICPCG:  Solving for G, Initial residual = 0.00112194, Final residual = 0.000101578, No Iterations 16
DILUPBiCGStab:  Solving for h, Initial residual = 0.00240897, Final residual = 8.83333e-07, No Iterations 1
DICPCG:  Solving for p_rgh, Initial residual = 0.0130532, Final residual = 0.000113361, No Iterations 48
time step continuity errors : sum local = 3.06807e-06, global = 9.25915e-09, cumulative = 0.000120021
ExecutionTime = 2.57 s  ClockTime = 3 s

Time = 40

DILUPBiCGStab:  Solving for Ux, Initial residual = 0.0123142, Final residual = 3.48047e-05, No Iterations 1
DILUPBiCGStab:  Solving for Uy, Initial residual = 0.0122216, Final residual = 3.14051e-05, No Iterations 1
DILUPBiCGStab:  Solving for Uz, Initial residual = 0.0109363, Final residual = 2.24535e-05, No Iterations 1
DICPCG:  Solving for G, Initial residual = 0.00100804, Final residual = 9.20333e-05, No Iterations 17
DILUPBiCGStab:  Solving for h, Initial residual = 0.00237222, Final residual = 8.7114e-07, No Iterations 1
DICPCG:  Solving for p_rgh, Initial residual = 0.0125352, Final residual = 0.000119057, No Iterations 24
time step continuity errors : sum local = 3.18982e-06, global = 4.88487e-07, cumulative = 0.00012051
ExecutionTime = 2.63 s  ClockTime = 3 s

Time = 41

DILUPBiCGStab:  Solving for Ux, Initial residual = 0.0120483, Final residual = 3.39849e-05, No Iterations 1
DILUPBiCGStab:  Solving for Uy, Initial residual = 0.0118325, Final residual = 3.06533e-05, No Iterations 1
DILUPBiCGStab:  Solving for Uz, Initial residual = 0.0106756, Final residual = 2.38104e-05, No Iterations 1
DICPCG:  Solving for G, Initial residual = 0.000971836, Final residual = 9.15056e-05, No Iterations 17
DILUPBiCGStab:  Solving for h, Initial residual = 0.00233734, Final residual = 8.59905e-07, No Iterations 1
DICPCG:  Solving for p_rgh, Initial residual = 0.0121055, Final residual = 0.000118883, No Iterations 17
time step continuity errors : sum local = 3.15557e-06, global = 7.96008e-07, cumulative = 0.000121306
ExecutionTime = 2.69 s  ClockTime = 3 s

Time = 42

DILUPBiCGStab:  Solving for Ux, Initial residual = 0.0117852, Final residual = 3.31943e-05, No Iterations 1
DILUPBiCGStab:  Solving for Uy, Initial residual = 0.0114707, Final residual = 2.97619e-05, No Iterations 1
DILUPBiCGStab:  Solving for Uz, Initial residual = 0.0104392, Final residual = 2.34663e-05, No Iterations 1
DICPCG:  Solving for G, Initial residual = 0.00095245, Final residual = 8.75079e-05, No Iterations 17
DILUPBiCGStab:  Solving for h, Initial residual = 0.00230431, Final residual = 8.49391e-07, No Iterations 1
DICPCG:  Solving for p_rgh, Initial residual = 0.0116788, Final residual = 0.000109886, No Iterations 17
time step continuity errors : sum local = 2.89115e-06, global = 7.85025e-07, cumulative = 0.000122091
ExecutionTime = 2.74 s  ClockTime = 3 s

Time = 43

DILUPBiCGStab:  Solving for Ux, Initial residual = 0.0115186, Final residual = 3.23924e-05, No Iterations 1
DILUPBiCGStab:  Solving for Uy, Initial residual = 0.011132, Final residual = 2.89245e-05, No Iterations 1
DILUPBiCGStab:  Solving for Uz, Initial residual = 0.0102099, Final residual = 2.2932e-05, No Iterations 1
DICPCG:  Solving for G, Initial residual = 0.000933705, Final residual = 8.50466e-05, No Iterations 17
DILUPBiCGStab:  Solving for h, Initial residual = 0.00227296, Final residual = 8.39549e-07, No Iterations 1
DICPCG:  Solving for p_rgh, Initial residual = 0.0112868, Final residual = 0.000111272, No Iterations 18
time step continuity errors : sum local = 2.90316e-06, global = 6.27459e-07, cumulative = 0.000122718
ExecutionTime = 2.79 s  ClockTime = 3 s

Time = 44

DILUPBiCGStab:  Solving for Ux, Initial residual = 0.0112609, Final residual = 3.16121e-05, No Iterations 1
DILUPBiCGStab:  Solving for Uy, Initial residual = 0.01081, Final residual = 2.8121e-05, No Iterations 1
DILUPBiCGStab:  Solving for Uz, Initial residual = 0.00998928, Final residual = 2.24144e-05, No Iterations 1
DICPCG:  Solving for G, Initial residual = 0.000916065, Final residual = 9.12334e-05, No Iterations 16
DILUPBiCGStab:  Solving for h, Initial residual = 0.00224332, Final residual = 8.30468e-07, No Iterations 1
DICPCG:  Solving for p_rgh, Initial residual = 0.0109396, Final residual = 0.000108427, No Iterations 21
time step continuity errors : sum local = 2.80632e-06, global = 3.6889e-07, cumulative = 0.000123087
ExecutionTime = 2.85 s  ClockTime = 3 s

Time = 45

DILUPBiCGStab:  Solving for Ux, Initial residual = 0.0110066, Final residual = 3.08365e-05, No Iterations 1
DILUPBiCGStab:  Solving for Uy, Initial residual = 0.0105055, Final residual = 2.73507e-05, No Iterations 1
DILUPBiCGStab:  Solving for Uz, Initial residual = 0.0097769, Final residual = 2.19238e-05, No Iterations 1
DICPCG:  Solving for G, Initial residual = 0.00090489, Final residual = 8.30836e-05, No Iterations 17
DILUPBiCGStab:  Solving for h, Initial residual = 0.00221521, Final residual = 8.22218e-07, No Iterations 1
DICPCG:  Solving for p_rgh, Initial residual = 0.0106014, Final residual = 0.000103356, No Iterations 18
time step continuity errors : sum local = 2.65467e-06, global = 1.29829e-07, cumulative = 0.000123217
ExecutionTime = 2.91 s  ClockTime = 3 s

Time = 46

DILUPBiCGStab:  Solving for Ux, Initial residual = 0.0107608, Final residual = 3.00936e-05, No Iterations 1
DILUPBiCGStab:  Solving for Uy, Initial residual = 0.0102151, Final residual = 2.66078e-05, No Iterations 1
DILUPBiCGStab:  Solving for Uz, Initial residual = 0.00957158, Final residual = 2.14508e-05, No Iterations 1
DICPCG:  Solving for G, Initial residual = 0.000887064, Final residual = 8.68838e-05, No Iterations 16
DILUPBiCGStab:  Solving for h, Initial residual = 0.00218853, Final residual = 8.14795e-07, No Iterations 1
DICPCG:  Solving for p_rgh, Initial residual = 0.0102871, Final residual = 0.000101781, No Iterations 20
time step continuity errors : sum local = 2.59511e-06, global = -1.24287e-07, cumulative = 0.000123092
ExecutionTime = 2.95 s  ClockTime = 3 s

Time = 47

DILUPBiCGStab:  Solving for Ux, Initial residual = 0.0105139, Final residual = 2.93719e-05, No Iterations 1
DILUPBiCGStab:  Solving for Uy, Initial residual = 0.00993604, Final residual = 2.58873e-05, No Iterations 1
DILUPBiCGStab:  Solving for Uz, Initial residual = 0.00937044, Final residual = 2.09926e-05, No Iterations 1
DICPCG:  Solving for G, Initial residual = 0.000874538, Final residual = 7.96142e-05, No Iterations 17
DILUPBiCGStab:  Solving for h, Initial residual = 0.00216327, Final residual = 8.07951e-07, No Iterations 1
DICPCG:  Solving for p_rgh, Initial residual = 0.00997717, Final residual = 9.44526e-05, No Iterations 23
time step continuity errors : sum local = 2.39124e-06, global = -3.75816e-07, cumulative = 0.000122717
ExecutionTime = 3.01 s  ClockTime = 3 s

Time = 48

DILUPBiCGStab:  Solving for Ux, Initial residual = 0.0102701, Final residual = 2.86511e-05, No Iterations 1
DILUPBiCGStab:  Solving for Uy, Initial residual = 0.00967208, Final residual = 2.52113e-05, No Iterations 1
DILUPBiCGStab:  Solving for Uz, Initial residual = 0.0091747, Final residual = 2.05509e-05, No Iterations 1
DICPCG:  Solving for G, Initial residual = 0.000859082, Final residual = 8.29992e-05, No Iterations 16
DILUPBiCGStab:  Solving for h, Initial residual = 0.00213929, Final residual = 8.01655e-07, No Iterations 1
DICPCG:  Solving for p_rgh, Initial residual = 0.0097046, Final residual = 9.63157e-05, No Iterations 18
time step continuity errors : sum local = 2.42174e-06, global = -5.55149e-07, cumulative = 0.000122161
ExecutionTime = 3.06 s  ClockTime = 3 s

Time = 49

DILUPBiCGStab:  Solving for Ux, Initial residual = 0.0100385, Final residual = 2.79699e-05, No Iterations 1
DILUPBiCGStab:  Solving for Uy, Initial residual = 0.00942084, Final residual = 2.45523e-05, No Iterations 1
DILUPBiCGStab:  Solving for Uz, Initial residual = 0.00898467, Final residual = 2.01215e-05, No Iterations 1
DICPCG:  Solving for G, Initial residual = 0.000849081, Final residual = 8.39146e-05, No Iterations 16
DILUPBiCGStab:  Solving for h, Initial residual = 0.00211663, Final residual = 7.9582e-07, No Iterations 1
DICPCG:  Solving for p_rgh, Initial residual = 0.00943223, Final residual = 9.42731e-05, No Iterations 54
time step continuity errors : sum local = 2.35484e-06, global = -2.66185e-08, cumulative = 0.000122135
ExecutionTime = 3.12 s  ClockTime = 3 s

Time = 50

DILUPBiCGStab:  Solving for Ux, Initial residual = 0.00980715, Final residual = 2.72779e-05, No Iterations 1
DILUPBiCGStab:  Solving for Uy, Initial residual = 0.00918385, Final residual = 2.3933e-05, No Iterations 1
DILUPBiCGStab:  Solving for Uz, Initial residual = 0.00878751, Final residual = 1.97035e-05, No Iterations 1
DICPCG:  Solving for G, Initial residual = 0.000836806, Final residual = 8.30111e-05, No Iterations 16
DILUPBiCGStab:  Solving for h, Initial residual = 0.0020951, Final residual = 7.90438e-07, No Iterations 1
DICPCG:  Solving for p_rgh, Initial residual = 0.00916863, Final residual = 8.67145e-05, No Iterations 17
time step continuity errors : sum local = 2.15192e-06, global = 2.73094e-07, cumulative = 0.000122408
ExecutionTime = 3.19 s  ClockTime = 3 s

Time = 51

DILUPBiCGStab:  Solving for Ux, Initial residual = 0.00958402, Final residual = 2.66249e-05, No Iterations 1
DILUPBiCGStab:  Solving for Uy, Initial residual = 0.00894556, Final residual = 2.33168e-05, No Iterations 1
DILUPBiCGStab:  Solving for Uz, Initial residual = 0.00861027, Final residual = 1.93042e-05, No Iterations 1
DICPCG:  Solving for G, Initial residual = 0.000827096, Final residual = 8.24811e-05, No Iterations 16
DILUPBiCGStab:  Solving for h, Initial residual = 0.00207463, Final residual = 7.85472e-07, No Iterations 1
DICPCG:  Solving for p_rgh, Initial residual = 0.00892718, Final residual = 8.15544e-05, No Iterations 55
time step continuity errors : sum local = 2.0117e-06, global = 6.4534e-09, cumulative = 0.000122414
ExecutionTime = 3.25 s  ClockTime = 3 s

Time = 52

DILUPBiCGStab:  Solving for Ux, Initial residual = 0.00935019, Final residual = 2.59588e-05, No Iterations 1
DILUPBiCGStab:  Solving for Uy, Initial residual = 0.00873293, Final residual = 2.27729e-05, No Iterations 1
DILUPBiCGStab:  Solving for Uz, Initial residual = 0.00844399, Final residual = 1.89134e-05, No Iterations 1
DICPCG:  Solving for G, Initial residual = 0.000816131, Final residual = 8.07057e-05, No Iterations 16
DILUPBiCGStab:  Solving for h, Initial residual = 0.00205519, Final residual = 7.80921e-07, No Iterations 1
DICPCG:  Solving for p_rgh, Initial residual = 0.00871246, Final residual = 7.57293e-05, No Iterations 18
time step continuity errors : sum local = 1.85746e-06, global = -1.33362e-08, cumulative = 0.000122401
ExecutionTime = 3.3 s  ClockTime = 3 s

Time = 53

DILUPBiCGStab:  Solving for Ux, Initial residual = 0.00914327, Final residual = 2.53534e-05, No Iterations 1
DILUPBiCGStab:  Solving for Uy, Initial residual = 0.00851938, Final residual = 2.22092e-05, No Iterations 1
DILUPBiCGStab:  Solving for Uz, Initial residual = 0.00827101, Final residual = 1.85345e-05, No Iterations 1
DICPCG:  Solving for G, Initial residual = 0.000807607, Final residual = 7.40332e-05, No Iterations 17
DILUPBiCGStab:  Solving for h, Initial residual = 0.0020367, Final residual = 7.76738e-07, No Iterations 1
DICPCG:  Solving for p_rgh, Initial residual = 0.00849889, Final residual = 8.34239e-05, No Iterations 25
time step continuity errors : sum local = 2.03472e-06, global = -2.65318e-07, cumulative = 0.000122136
ExecutionTime = 3.36 s  ClockTime = 4 s

Time = 54

DILUPBiCGStab:  Solving for Ux, Initial residual = 0.00892747, Final residual = 2.47219e-05, No Iterations 1
DILUPBiCGStab:  Solving for Uy, Initial residual = 0.00832295, Final residual = 2.17069e-05, No Iterations 1
DILUPBiCGStab:  Solving for Uz, Initial residual = 0.0081028, Final residual = 1.81707e-05, No Iterations 1
DICPCG:  Solving for G, Initial residual = 0.000797183, Final residual = 7.80063e-05, No Iterations 16
DILUPBiCGStab:  Solving for h, Initial residual = 0.00201896, Final residual = 7.72919e-07, No Iterations 1
DICPCG:  Solving for p_rgh, Initial residual = 0.00829221, Final residual = 8.28573e-05, No Iterations 23
time step continuity errors : sum local = 2.00993e-06, global = -4.32465e-07, cumulative = 0.000121703
ExecutionTime = 3.41 s  ClockTime = 4 s

Time = 55

DILUPBiCGStab:  Solving for Ux, Initial residual = 0.00872421, Final residual = 2.41331e-05, No Iterations 1
DILUPBiCGStab:  Solving for Uy, Initial residual = 0.00812977, Final residual = 2.11952e-05, No Iterations 1
DILUPBiCGStab:  Solving for Uz, Initial residual = 0.00794031, Final residual = 1.78172e-05, No Iterations 1
DICPCG:  Solving for G, Initial residual = 0.000790322, Final residual = 7.4126e-05, No Iterations 17
DILUPBiCGStab:  Solving for h, Initial residual = 0.00200195, Final residual = 7.69457e-07, No Iterations 1
DICPCG:  Solving for p_rgh, Initial residual = 0.00809222, Final residual = 7.57175e-05, No Iterations 54
time step continuity errors : sum local = 1.82715e-06, global = -2.21471e-08, cumulative = 0.000121681
ExecutionTime = 3.48 s  ClockTime = 4 s

Time = 56

DILUPBiCGStab:  Solving for Ux, Initial residual = 0.00852871, Final residual = 2.35491e-05, No Iterations 1
DILUPBiCGStab:  Solving for Uy, Initial residual = 0.00795006, Final residual = 2.07241e-05, No Iterations 1
DILUPBiCGStab:  Solving for Uz, Initial residual = 0.00777459, Final residual = 1.74728e-05, No Iterations 1
DICPCG:  Solving for G, Initial residual = 0.000781231, Final residual = 7.74898e-05, No Iterations 16
DILUPBiCGStab:  Solving for h, Initial residual = 0.0019856, Final residual = 7.66294e-07, No Iterations 1
DICPCG:  Solving for p_rgh, Initial residual = 0.00788998, Final residual = 7.44064e-05, No Iterations 18
time step continuity errors : sum local = 1.78622e-06, global = 2.07811e-07, cumulative = 0.000121889
ExecutionTime = 3.52 s  ClockTime = 4 s

Time = 57

DILUPBiCGStab:  Solving for Ux, Initial residual = 0.0083376, Final residual = 2.29957e-05, No Iterations 1
DILUPBiCGStab:  Solving for Uy, Initial residual = 0.00776881, Final residual = 2.02577e-05, No Iterations 1
DILUPBiCGStab:  Solving for Uz, Initial residual = 0.00762265, Final residual = 1.71458e-05, No Iterations 1
DICPCG:  Solving for G, Initial residual = 0.000775914, Final residual = 7.38713e-05, No Iterations 17
DILUPBiCGStab:  Solving for h, Initial residual = 0.00196986, Final residual = 7.6341e-07, No Iterations 1
DICPCG:  Solving for p_rgh, Initial residual = 0.00771596, Final residual = 7.65972e-05, No Iterations 21
time step continuity errors : sum local = 1.82994e-06, global = 5.18459e-07, cumulative = 0.000122407
ExecutionTime = 3.59 s  ClockTime = 4 s

Time = 58

DILUPBiCGStab:  Solving for Ux, Initial residual = 0.00814601, Final residual = 2.24417e-05, No Iterations 1
DILUPBiCGStab:  Solving for Uy, Initial residual = 0.0076021, Final residual = 1.98272e-05, No Iterations 1
DILUPBiCGStab:  Solving for Uz, Initial residual = 0.00747212, Final residual = 1.68247e-05, No Iterations 1
DICPCG:  Solving for G, Initial residual = 0.000767851, Final residual = 7.1902e-05, No Iterations 17
DILUPBiCGStab:  Solving for h, Initial residual = 0.00195469, Final residual = 7.60789e-07, No Iterations 1
DICPCG:  Solving for p_rgh, Initial residual = 0.00754774, Final residual = 6.69634e-05, No Iterations 55
time step continuity errors : sum local = 1.59237e-06, global = 7.77597e-09, cumulative = 0.000122415
ExecutionTime = 3.65 s  ClockTime = 4 s

Time = 59

DILUPBiCGStab:  Solving for Ux, Initial residual = 0.00795066, Final residual = 2.18836e-05, No Iterations 1
DILUPBiCGStab:  Solving for Uy, Initial residual = 0.00744692, Final residual = 1.94149e-05, No Iterations 1
DILUPBiCGStab:  Solving for Uz, Initial residual = 0.00733626, Final residual = 1.65112e-05, No Iterations 1
DICPCG:  Solving for G, Initial residual = 0.000760563, Final residual = 7.2609e-05, No Iterations 17
DILUPBiCGStab:  Solving for h, Initial residual = 0.0019401, Final residual = 7.58384e-07, No Iterations 1
DICPCG:  Solving for p_rgh, Initial residual = 0.00739781, Final residual = 6.77277e-05, No Iterations 19
time step continuity errors : sum local = 1.60366e-06, global = -1.93107e-07, cumulative = 0.000122222
ExecutionTime = 3.7 s  ClockTime = 4 s

Time = 60

DILUPBiCGStab:  Solving for Ux, Initial residual = 0.00778066, Final residual = 2.1388e-05, No Iterations 1
DILUPBiCGStab:  Solving for Uy, Initial residual = 0.0072854, Final residual = 1.89887e-05, No Iterations 1
DILUPBiCGStab:  Solving for Uz, Initial residual = 0.00719074, Final residual = 1.62081e-05, No Iterations 1
DICPCG:  Solving for G, Initial residual = 0.000754515, Final residual = 7.30216e-05, No Iterations 17
DILUPBiCGStab:  Solving for h, Initial residual = 0.00192603, Final residual = 7.56175e-07, No Iterations 1
DICPCG:  Solving for p_rgh, Initial residual = 0.00723273, Final residual = 5.99915e-05, No Iterations 56
time step continuity errors : sum local = 1.41434e-06, global = -1.54471e-08, cumulative = 0.000122207
ExecutionTime = 3.77 s  ClockTime = 4 s

Time = 61

DILUPBiCGStab:  Solving for Ux, Initial residual = 0.00760828, Final residual = 2.08707e-05, No Iterations 1
DILUPBiCGStab:  Solving for Uy, Initial residual = 0.0071389, Final residual = 1.86113e-05, No Iterations 1
DILUPBiCGStab:  Solving for Uz, Initial residual = 0.00704245, Final residual = 1.59155e-05, No Iterations 1
DICPCG:  Solving for G, Initial residual = 0.000748807, Final residual = 7.32283e-05, No Iterations 17
DILUPBiCGStab:  Solving for h, Initial residual = 0.00191244, Final residual = 7.54136e-07, No Iterations 1
DICPCG:  Solving for p_rgh, Initial residual = 0.00706813, Final residual = 6.7908e-05, No Iterations 18
time step continuity errors : sum local = 1.59404e-06, global = 4.23426e-08, cumulative = 0.000122249
ExecutionTime = 3.83 s  ClockTime = 4 s

Time = 62

DILUPBiCGStab:  Solving for Ux, Initial residual = 0.00744352, Final residual = 2.03931e-05, No Iterations 1
DILUPBiCGStab:  Solving for Uy, Initial residual = 0.00699163, Final residual = 1.82218e-05, No Iterations 1
DILUPBiCGStab:  Solving for Uz, Initial residual = 0.00690735, Final residual = 1.56294e-05, No Iterations 1
DICPCG:  Solving for G, Initial residual = 0.000743224, Final residual = 7.38215e-05, No Iterations 17
DILUPBiCGStab:  Solving for h, Initial residual = 0.00189939, Final residual = 7.52275e-07, No Iterations 1
DICPCG:  Solving for p_rgh, Initial residual = 0.00691972, Final residual = 6.23866e-05, No Iterations 20
time step continuity errors : sum local = 1.45857e-06, global = 2.277e-07, cumulative = 0.000122477
ExecutionTime = 3.88 s  ClockTime = 4 s

Time = 63

DILUPBiCGStab:  Solving for Ux, Initial residual = 0.00727892, Final residual = 1.9916e-05, No Iterations 1
DILUPBiCGStab:  Solving for Uy, Initial residual = 0.0068542, Final residual = 1.78609e-05, No Iterations 1
DILUPBiCGStab:  Solving for Uz, Initial residual = 0.00677545, Final residual = 1.53536e-05, No Iterations 1
DICPCG:  Solving for G, Initial residual = 0.000738192, Final residual = 6.92492e-05, No Iterations 18
DILUPBiCGStab:  Solving for h, Initial residual = 0.00188682, Final residual = 7.50582e-07, No Iterations 1
DICPCG:  Solving for p_rgh, Initial residual = 0.00677824, Final residual = 6.45217e-05, No Iterations 27
time step continuity errors : sum local = 1.50262e-06, global = 3.04496e-07, cumulative = 0.000122781
ExecutionTime = 3.94 s  ClockTime = 4 s

Time = 64

DILUPBiCGStab:  Solving for Ux, Initial residual = 0.00711537, Final residual = 1.94316e-05, No Iterations 1
DILUPBiCGStab:  Solving for Uy, Initial residual = 0.0067268, Final residual = 1.75312e-05, No Iterations 1
DILUPBiCGStab:  Solving for Uz, Initial residual = 0.00664806, Final residual = 1.5088e-05, No Iterations 1
DICPCG:  Solving for G, Initial residual = 0.00072845, Final residual = 7.27254e-05, No Iterations 17
DILUPBiCGStab:  Solving for h, Initial residual = 0.00187466, Final residual = 7.49066e-07, No Iterations 1
DICPCG:  Solving for p_rgh, Initial residual = 0.00665359, Final residual = 6.09679e-05, No Iterations 20
time step continuity errors : sum local = 1.4145e-06, global = 4.09083e-07, cumulative = 0.00012319
ExecutionTime = 4 s  ClockTime = 4 s

Time = 65

DILUPBiCGStab:  Solving for Ux, Initial residual = 0.00696645, Final residual = 1.90021e-05, No Iterations 1
DILUPBiCGStab:  Solving for Uy, Initial residual = 0.00659309, Final residual = 1.71659e-05, No Iterations 1
DILUPBiCGStab:  Solving for Uz, Initial residual = 0.00652213, Final residual = 1.48252e-05, No Iterations 1
DICPCG:  Solving for G, Initial residual = 0.000728401, Final residual = 6.97981e-05, No Iterations 18
DILUPBiCGStab:  Solving for h, Initial residual = 0.00186297, Final residual = 7.47655e-07, No Iterations 1
DICPCG:  Solving for p_rgh, Initial residual = 0.0065194, Final residual = 5.23851e-05, No Iterations 56
time step continuity errors : sum local = 1.21095e-06, global = 6.80502e-09, cumulative = 0.000123197
ExecutionTime = 4.06 s  ClockTime = 4 s

Time = 66

DILUPBiCGStab:  Solving for Ux, Initial residual = 0.00681034, Final residual = 1.855e-05, No Iterations 1
DILUPBiCGStab:  Solving for Uy, Initial residual = 0.00647499, Final residual = 1.68481e-05, No Iterations 1
DILUPBiCGStab:  Solving for Uz, Initial residual = 0.00640605, Final residual = 1.45742e-05, No Iterations 1
DICPCG:  Solving for G, Initial residual = 0.000720092, Final residual = 6.83808e-05, No Iterations 18
DILUPBiCGStab:  Solving for h, Initial residual = 0.00185169, Final residual = 7.46342e-07, No Iterations 1
DICPCG:  Solving for p_rgh, Initial residual = 0.00640585, Final residual = 5.76276e-05, No Iterations 20
time step continuity errors : sum local = 1.32761e-06, global = -1.7658e-07, cumulative = 0.00012302
ExecutionTime = 4.12 s  ClockTime = 4 s

Time = 67

DILUPBiCGStab:  Solving for Ux, Initial residual = 0.00667134, Final residual = 1.8142e-05, No Iterations 1
DILUPBiCGStab:  Solving for Uy, Initial residual = 0.00635326, Final residual = 1.65247e-05, No Iterations 1
DILUPBiCGStab:  Solving for Uz, Initial residual = 0.00628459, Final residual = 1.43275e-05, No Iterations 1
DICPCG:  Solving for G, Initial residual = 0.000714921, Final residual = 6.86675e-05, No Iterations 18
DILUPBiCGStab:  Solving for h, Initial residual = 0.00184078, Final residual = 7.45119e-07, No Iterations 1
DICPCG:  Solving for p_rgh, Initial residual = 0.00627563, Final residual = 5.99004e-05, No Iterations 56
time step continuity errors : sum local = 1.37526e-06, global = -1.99596e-08, cumulative = 0.000123001
ExecutionTime = 4.18 s  ClockTime = 4 s

Time = 68

DILUPBiCGStab:  Solving for Ux, Initial residual = 0.00653117, Final residual = 1.77198e-05, No Iterations 1
DILUPBiCGStab:  Solving for Uy, Initial residual = 0.00624243, Final residual = 1.62373e-05, No Iterations 1
DILUPBiCGStab:  Solving for Uz, Initial residual = 0.006163, Final residual = 1.40909e-05, No Iterations 1
DICPCG:  Solving for G, Initial residual = 0.000711137, Final residual = 6.91057e-05, No Iterations 18
DILUPBiCGStab:  Solving for h, Initial residual = 0.00183026, Final residual = 7.43965e-07, No Iterations 1
DICPCG:  Solving for p_rgh, Initial residual = 0.00615366, Final residual = 5.41268e-05, No Iterations 19
time step continuity errors : sum local = 1.23842e-06, global = 4.47219e-08, cumulative = 0.000123045
ExecutionTime = 4.23 s  ClockTime = 4 s

Time = 69

DILUPBiCGStab:  Solving for Ux, Initial residual = 0.00639851, Final residual = 1.73351e-05, No Iterations 1
DILUPBiCGStab:  Solving for Uy, Initial residual = 0.00612835, Final residual = 1.59263e-05, No Iterations 1
DILUPBiCGStab:  Solving for Uz, Initial residual = 0.00605052, Final residual = 1.3858e-05, No Iterations 1
DICPCG:  Solving for G, Initial residual = 0.000707092, Final residual = 6.94608e-05, No Iterations 18
DILUPBiCGStab:  Solving for h, Initial residual = 0.00182012, Final residual = 7.42876e-07, No Iterations 1
DICPCG:  Solving for p_rgh, Initial residual = 0.00603773, Final residual = 5.97362e-05, No Iterations 20
time step continuity errors : sum local = 1.36236e-06, global = 1.99773e-07, cumulative = 0.000123245
ExecutionTime = 4.29 s  ClockTime = 4 s

Time = 70

DILUPBiCGStab:  Solving for Ux, Initial residual = 0.00626531, Final residual = 1.69474e-05, No Iterations 1
DILUPBiCGStab:  Solving for Uy, Initial residual = 0.00602239, Final residual = 1.56411e-05, No Iterations 1
DILUPBiCGStab:  Solving for Uz, Initial residual = 0.0059414, Final residual = 1.36351e-05, No Iterations 1
DICPCG:  Solving for G, Initial residual = 0.000703843, Final residual = 7.01537e-05, No Iterations 18
DILUPBiCGStab:  Solving for h, Initial residual = 0.00181039, Final residual = 7.41823e-07, No Iterations 1
DICPCG:  Solving for p_rgh, Initial residual = 0.00593006, Final residual = 5.86551e-05, No Iterations 28
time step continuity errors : sum local = 1.3335e-06, global = 2.64947e-07, cumulative = 0.00012351
ExecutionTime = 4.36 s  ClockTime = 5 s

Time = 71

DILUPBiCGStab:  Solving for Ux, Initial residual = 0.00613259, Final residual = 1.65541e-05, No Iterations 1
DILUPBiCGStab:  Solving for Uy, Initial residual = 0.005925, Final residual = 1.53825e-05, No Iterations 1
DILUPBiCGStab:  Solving for Uz, Initial residual = 0.00583585, Final residual = 1.34186e-05, No Iterations 1
DICPCG:  Solving for G, Initial residual = 0.000700122, Final residual = 5.91192e-05, No Iterations 19
DILUPBiCGStab:  Solving for h, Initial residual = 0.001801, Final residual = 7.40826e-07, No Iterations 1
DICPCG:  Solving for p_rgh, Initial residual = 0.00583317, Final residual = 5.49318e-05, No Iterations 20
time step continuity errors : sum local = 1.24505e-06, global = 3.5159e-07, cumulative = 0.000123862
ExecutionTime = 4.42 s  ClockTime = 5 s

Time = 72

DILUPBiCGStab:  Solving for Ux, Initial residual = 0.00601224, Final residual = 1.62065e-05, No Iterations 1
DILUPBiCGStab:  Solving for Uy, Initial residual = 0.00581923, Final residual = 1.50887e-05, No Iterations 1
DILUPBiCGStab:  Solving for Uz, Initial residual = 0.0057314, Final residual = 1.32048e-05, No Iterations 1
DICPCG:  Solving for G, Initial residual = 0.000694162, Final residual = 6.84983e-05, No Iterations 18
DILUPBiCGStab:  Solving for h, Initial residual = 0.00179193, Final residual = 7.39878e-07, No Iterations 1
DICPCG:  Solving for p_rgh, Initial residual = 0.00573061, Final residual = 5.12263e-05, No Iterations 56
time step continuity errors : sum local = 1.15763e-06, global = 7.3181e-09, cumulative = 0.000123869
ExecutionTime = 4.48 s  ClockTime = 5 s

Time = 73

DILUPBiCGStab:  Solving for Ux, Initial residual = 0.00588549, Final residual = 1.58383e-05, No Iterations 1
DILUPBiCGStab:  Solving for Uy, Initial residual = 0.00572758, Final residual = 1.48345e-05, No Iterations 1
DILUPBiCGStab:  Solving for Uz, Initial residual = 0.0056349, Final residual = 1.30006e-05, No Iterations 1
DICPCG:  Solving for G, Initial residual = 0.000695003, Final residual = 5.86611e-05, No Iterations 19
DILUPBiCGStab:  Solving for h, Initial residual = 0.00178316, Final residual = 7.38964e-07, No Iterations 1
DICPCG:  Solving for p_rgh, Initial residual = 0.00564627, Final residual = 5.46215e-05, No Iterations 20
time step continuity errors : sum local = 1.23093e-06, global = -1.48287e-07, cumulative = 0.000123721
ExecutionTime = 4.55 s  ClockTime = 5 s

Time = 74

DILUPBiCGStab:  Solving for Ux, Initial residual = 0.00577323, Final residual = 1.55074e-05, No Iterations 1
DILUPBiCGStab:  Solving for Uy, Initial residual = 0.00563113, Final residual = 1.4573e-05, No Iterations 1
DILUPBiCGStab:  Solving for Uz, Initial residual = 0.0055337, Final residual = 1.27982e-05, No Iterations 1
DICPCG:  Solving for G, Initial residual = 0.000688026, Final residual = 5.85805e-05, No Iterations 19
DILUPBiCGStab:  Solving for h, Initial residual = 0.0017747, Final residual = 7.38099e-07, No Iterations 1
DICPCG:  Solving for p_rgh, Initial residual = 0.00554319, Final residual = 4.57952e-05, No Iterations 57
time step continuity errors : sum local = 1.02911e-06, global = -1.7221e-08, cumulative = 0.000123703
ExecutionTime = 4.62 s  ClockTime = 5 s

Time = 75

DILUPBiCGStab:  Solving for Ux, Initial residual = 0.00565916, Final residual = 1.51595e-05, No Iterations 1
DILUPBiCGStab:  Solving for Uy, Initial residual = 0.00554312, Final residual = 1.43421e-05, No Iterations 1
DILUPBiCGStab:  Solving for Uz, Initial residual = 0.0054325, Final residual = 1.26045e-05, No Iterations 1
DICPCG:  Solving for G, Initial residual = 0.000685027, Final residual = 5.83607e-05, No Iterations 19
DILUPBiCGStab:  Solving for h, Initial residual = 0.00176655, Final residual = 7.37234e-07, No Iterations 1
DICPCG:  Solving for p_rgh, Initial residual = 0.00544595, Final residual = 5.36747e-05, No Iterations 19
time step continuity errors : sum local = 1.20275e-06, global = 3.71588e-08, cumulative = 0.000123741
ExecutionTime = 4.67 s  ClockTime = 5 s

Time = 76

DILUPBiCGStab:  Solving for Ux, Initial residual = 0.00555142, Final residual = 1.48468e-05, No Iterations 1
DILUPBiCGStab:  Solving for Uy, Initial residual = 0.00545249, Final residual = 1.40884e-05, No Iterations 1
DILUPBiCGStab:  Solving for Uz, Initial residual = 0.00533824, Final residual = 1.24115e-05, No Iterations 1
DICPCG:  Solving for G, Initial residual = 0.000682189, Final residual = 5.87252e-05, No Iterations 19
DILUPBiCGStab:  Solving for h, Initial residual = 0.00175861, Final residual = 7.36389e-07, No Iterations 1
DICPCG:  Solving for p_rgh, Initial residual = 0.00535617, Final residual = 4.98701e-05, No Iterations 21
time step continuity errors : sum local = 1.11452e-06, global = 1.61513e-07, cumulative = 0.000123902
ExecutionTime = 4.73 s  ClockTime = 5 s

Time = 77

DILUPBiCGStab:  Solving for Ux, Initial residual = 0.00544281, Final residual = 1.45279e-05, No Iterations 1
DILUPBiCGStab:  Solving for Uy, Initial residual = 0.00536789, Final residual = 1.38555e-05, No Iterations 1
DILUPBiCGStab:  Solving for Uz, Initial residual = 0.00524691, Final residual = 1.22284e-05, No Iterations 1
DICPCG:  Solving for G, Initial residual = 0.000679155, Final residual = 5.81225e-05, No Iterations 19
DILUPBiCGStab:  Solving for h, Initial residual = 0.00175089, Final residual = 7.35575e-07, No Iterations 1
DICPCG:  Solving for p_rgh, Initial residual = 0.00527621, Final residual = 5.16831e-05, No Iterations 27
time step continuity errors : sum local = 1.15204e-06, global = 2.1928e-07, cumulative = 0.000124121
ExecutionTime = 4.79 s  ClockTime = 5 s

Time = 78

DILUPBiCGStab:  Solving for Ux, Initial residual = 0.00533539, Final residual = 1.42069e-05, No Iterations 1
DILUPBiCGStab:  Solving for Uy, Initial residual = 0.00528939, Final residual = 1.3642e-05, No Iterations 1
DILUPBiCGStab:  Solving for Uz, Initial residual = 0.00515841, Final residual = 1.20485e-05, No Iterations 1
DICPCG:  Solving for G, Initial residual = 0.00067692, Final residual = 5.92429e-05, No Iterations 19
DILUPBiCGStab:  Solving for h, Initial residual = 0.00174339, Final residual = 7.34752e-07, No Iterations 1
DICPCG:  Solving for p_rgh, Initial residual = 0.00519863, Final residual = 4.91733e-05, No Iterations 21
time step continuity errors : sum local = 1.09331e-06, global = 2.85029e-07, cumulative = 0.000124406
ExecutionTime = 4.84 s  ClockTime = 5 s

Time = 79

DILUPBiCGStab:  Solving for Ux, Initial residual = 0.00523726, Final residual = 1.39222e-05, No Iterations 1
DILUPBiCGStab:  Solving for Uy, Initial residual = 0.00520394, Final residual = 1.34012e-05, No Iterations 1
DILUPBiCGStab:  Solving for Uz, Initial residual = 0.00507093, Final residual = 1.1871e-05, No Iterations 1
DICPCG:  Solving for G, Initial residual = 0.000674029, Final residual = 5.76168e-05, No Iterations 19
DILUPBiCGStab:  Solving for h, Initial residual = 0.0017361, Final residual = 7.33943e-07, No Iterations 1
DICPCG:  Solving for p_rgh, Initial residual = 0.00512066, Final residual = 4.95405e-05, No Iterations 31
time step continuity errors : sum local = 1.09875e-06, global = 2.61043e-07, cumulative = 0.000124667
ExecutionTime = 4.9 s  ClockTime = 5 s

Time = 80

DILUPBiCGStab:  Solving for Ux, Initial residual = 0.00513632, Final residual = 1.36216e-05, No Iterations 1
DILUPBiCGStab:  Solving for Uy, Initial residual = 0.00513053, Final residual = 1.32026e-05, No Iterations 1
DILUPBiCGStab:  Solving for Uz, Initial residual = 0.00498623, Final residual = 1.16993e-05, No Iterations 1
DICPCG:  Solving for G, Initial residual = 0.000671882, Final residual = 5.94125e-05, No Iterations 19
DILUPBiCGStab:  Solving for h, Initial residual = 0.00172905, Final residual = 7.33154e-07, No Iterations 1
DICPCG:  Solving for p_rgh, Initial residual = 0.00504807, Final residual = 4.73826e-05, No Iterations 20
time step continuity errors : sum local = 1.04836e-06, global = 2.77608e-07, cumulative = 0.000124945
ExecutionTime = 4.97 s  ClockTime = 5 s

Time = 81

DILUPBiCGStab:  Solving for Ux, Initial residual = 0.00504388, Final residual = 1.33498e-05, No Iterations 1
DILUPBiCGStab:  Solving for Uy, Initial residual = 0.00504873, Final residual = 1.29706e-05, No Iterations 1
DILUPBiCGStab:  Solving for Uz, Initial residual = 0.00490319, Final residual = 1.15345e-05, No Iterations 1
DICPCG:  Solving for G, Initial residual = 0.000669224, Final residual = 5.69501e-05, No Iterations 19
DILUPBiCGStab:  Solving for h, Initial residual = 0.00172225, Final residual = 7.32335e-07, No Iterations 1
DICPCG:  Solving for p_rgh, Initial residual = 0.00496763, Final residual = 4.67001e-05, No Iterations 22
time step continuity errors : sum local = 1.03084e-06, global = 2.56263e-07, cumulative = 0.000125201
ExecutionTime = 5.03 s  ClockTime = 5 s

Time = 82

DILUPBiCGStab:  Solving for Ux, Initial residual = 0.00495047, Final residual = 1.30722e-05, No Iterations 1
DILUPBiCGStab:  Solving for Uy, Initial residual = 0.00497597, Final residual = 1.27713e-05, No Iterations 1
DILUPBiCGStab:  Solving for Uz, Initial residual = 0.00482199, Final residual = 1.13743e-05, No Iterations 1
DICPCG:  Solving for G, Initial residual = 0.000667171, Final residual = 5.91426e-05, No Iterations 19
DILUPBiCGStab:  Solving for h, Initial residual = 0.00171572, Final residual = 7.31503e-07, No Iterations 1
DICPCG:  Solving for p_rgh, Initial residual = 0.00489694, Final residual = 4.81982e-05, No Iterations 27
time step continuity errors : sum local = 1.06146e-06, global = 1.95749e-07, cumulative = 0.000125397
ExecutionTime = 5.1 s  ClockTime = 5 s

Time = 83

DILUPBiCGStab:  Solving for Ux, Initial residual = 0.00485808, Final residual = 1.27958e-05, No Iterations 1
DILUPBiCGStab:  Solving for Uy, Initial residual = 0.00490791, Final residual = 1.25848e-05, No Iterations 1
DILUPBiCGStab:  Solving for Uz, Initial residual = 0.00474341, Final residual = 1.12149e-05, No Iterations 1
DICPCG:  Solving for G, Initial residual = 0.000665028, Final residual = 5.81371e-05, No Iterations 19
DILUPBiCGStab:  Solving for h, Initial residual = 0.00170937, Final residual = 7.30666e-07, No Iterations 1
DICPCG:  Solving for p_rgh, Initial residual = 0.00482863, Final residual = 4.47217e-05, No Iterations 21
time step continuity errors : sum local = 9.82711e-07, global = 1.59303e-07, cumulative = 0.000125556
ExecutionTime = 5.16 s  ClockTime = 5 s

Time = 84

DILUPBiCGStab:  Solving for Ux, Initial residual = 0.00477315, Final residual = 1.25486e-05, No Iterations 1
DILUPBiCGStab:  Solving for Uy, Initial residual = 0.00483271, Final residual = 1.23713e-05, No Iterations 1
DILUPBiCGStab:  Solving for Uz, Initial residual = 0.00466597, Final residual = 1.10602e-05, No Iterations 1
DICPCG:  Solving for G, Initial residual = 0.000662839, Final residual = 5.94171e-05, No Iterations 19
DILUPBiCGStab:  Solving for h, Initial residual = 0.00170317, Final residual = 7.29816e-07, No Iterations 1
DICPCG:  Solving for p_rgh, Initial residual = 0.00476265, Final residual = 4.44083e-05, No Iterations 22
time step continuity errors : sum local = 9.73729e-07, global = 1.04016e-07, cumulative = 0.00012566
ExecutionTime = 5.22 s  ClockTime = 5 s

Time = 85

DILUPBiCGStab:  Solving for Ux, Initial residual = 0.00468732, Final residual = 1.22924e-05, No Iterations 1
DILUPBiCGStab:  Solving for Uy, Initial residual = 0.00476464, Final residual = 1.21824e-05, No Iterations 1
DILUPBiCGStab:  Solving for Uz, Initial residual = 0.0045904, Final residual = 1.0912e-05, No Iterations 1
DICPCG:  Solving for G, Initial residual = 0.000660992, Final residual = 5.97812e-05, No Iterations 19
DILUPBiCGStab:  Solving for h, Initial residual = 0.00169714, Final residual = 7.28958e-07, No Iterations 1
DICPCG:  Solving for p_rgh, Initial residual = 0.00469752, Final residual = 4.59183e-05, No Iterations 23
time step continuity errors : sum local = 1.00474e-06, global = 4.34139e-08, cumulative = 0.000125704
ExecutionTime = 5.27 s  ClockTime = 5 s

Time = 86

DILUPBiCGStab:  Solving for Ux, Initial residual = 0.00460336, Final residual = 1.20416e-05, No Iterations 1
DILUPBiCGStab:  Solving for Uy, Initial residual = 0.00469924, Final residual = 1.20007e-05, No Iterations 1
DILUPBiCGStab:  Solving for Uz, Initial residual = 0.0045168, Final residual = 1.07661e-05, No Iterations 1
DICPCG:  Solving for G, Initial residual = 0.000659248, Final residual = 5.96268e-05, No Iterations 19
DILUPBiCGStab:  Solving for h, Initial residual = 0.00169126, Final residual = 7.28093e-07, No Iterations 1
DICPCG:  Solving for p_rgh, Initial residual = 0.0046344, Final residual = 4.4233e-05, No Iterations 22
time step continuity errors : sum local = 9.65911e-07, global = -1.02264e-08, cumulative = 0.000125694
ExecutionTime = 5.33 s  ClockTime = 6 s

Time = 87

DILUPBiCGStab:  Solving for Ux, Initial residual = 0.00452333, Final residual = 1.18044e-05, No Iterations 1
DILUPBiCGStab:  Solving for Uy, Initial residual = 0.00463324, Final residual = 1.18158e-05, No Iterations 1
DILUPBiCGStab:  Solving for Uz, Initial residual = 0.00444485, Final residual = 1.06226e-05, No Iterations 1
DICPCG:  Solving for G, Initial residual = 0.000657336, Final residual = 6.0625e-05, No Iterations 19
DILUPBiCGStab:  Solving for h, Initial residual = 0.00168554, Final residual = 7.27235e-07, No Iterations 1
DICPCG:  Solving for p_rgh, Initial residual = 0.00457266, Final residual = 4.40297e-05, No Iterations 22
time step continuity errors : sum local = 9.59587e-07, global = -6.56502e-08, cumulative = 0.000125628
ExecutionTime = 5.39 s  ClockTime = 6 s

Time = 88

DILUPBiCGStab:  Solving for Ux, Initial residual = 0.0044448, Final residual = 1.15712e-05, No Iterations 1
DILUPBiCGStab:  Solving for Uy, Initial residual = 0.00456925, Final residual = 1.1636e-05, No Iterations 1
DILUPBiCGStab:  Solving for Uz, Initial residual = 0.00437446, Final residual = 1.04833e-05, No Iterations 1
DICPCG:  Solving for G, Initial residual = 0.000655638, Final residual = 5.98572e-05, No Iterations 19
DILUPBiCGStab:  Solving for h, Initial residual = 0.00167998, Final residual = 7.26359e-07, No Iterations 1
DICPCG:  Solving for p_rgh, Initial residual = 0.00451456, Final residual = 4.51086e-05, No Iterations 22
time step continuity errors : sum local = 9.81228e-07, global = -1.17345e-07, cumulative = 0.000125511
ExecutionTime = 5.45 s  ClockTime = 6 s

Time = 89

DILUPBiCGStab:  Solving for Ux, Initial residual = 0.004368, Final residual = 1.13428e-05, No Iterations 1
DILUPBiCGStab:  Solving for Uy, Initial residual = 0.00450701, Final residual = 1.14613e-05, No Iterations 1
DILUPBiCGStab:  Solving for Uz, Initial residual = 0.00430575, Final residual = 1.03474e-05, No Iterations 1
DICPCG:  Solving for G, Initial residual = 0.000653787, Final residual = 6.06116e-05, No Iterations 19
DILUPBiCGStab:  Solving for h, Initial residual = 0.00167459, Final residual = 7.25469e-07, No Iterations 1
DICPCG:  Solving for p_rgh, Initial residual = 0.00445856, Final residual = 4.24635e-05, No Iterations 25
time step continuity errors : sum local = 9.21978e-07, global = -1.69979e-07, cumulative = 0.000125341
ExecutionTime = 5.51 s  ClockTime = 6 s

Time = 90

DILUPBiCGStab:  Solving for Ux, Initial residual = 0.00429247, Final residual = 1.11168e-05, No Iterations 1
DILUPBiCGStab:  Solving for Uy, Initial residual = 0.0044473, Final residual = 1.12938e-05, No Iterations 1
DILUPBiCGStab:  Solving for Uz, Initial residual = 0.0042387, Final residual = 1.02137e-05, No Iterations 1
DICPCG:  Solving for G, Initial residual = 0.000652393, Final residual = 6.0276e-05, No Iterations 19
DILUPBiCGStab:  Solving for h, Initial residual = 0.00166934, Final residual = 7.24551e-07, No Iterations 1
DICPCG:  Solving for p_rgh, Initial residual = 0.00440875, Final residual = 4.2568e-05, No Iterations 22
time step continuity errors : sum local = 9.22591e-07, global = -2.01524e-07, cumulative = 0.000125139
ExecutionTime = 5.58 s  ClockTime = 6 s

Time = 91

DILUPBiCGStab:  Solving for Ux, Initial residual = 0.00422141, Final residual = 1.09074e-05, No Iterations 1
DILUPBiCGStab:  Solving for Uy, Initial residual = 0.0043855, Final residual = 1.1119e-05, No Iterations 1
DILUPBiCGStab:  Solving for Uz, Initial residual = 0.00417312, Final residual = 1.00819e-05, No Iterations 1
DICPCG:  Solving for G, Initial residual = 0.000650604, Final residual = 6.03935e-05, No Iterations 19
DILUPBiCGStab:  Solving for h, Initial residual = 0.00166418, Final residual = 7.2361e-07, No Iterations 1
DICPCG:  Solving for p_rgh, Initial residual = 0.00435138, Final residual = 4.09519e-05, No Iterations 32
time step continuity errors : sum local = 8.86034e-07, global = -2.36742e-07, cumulative = 0.000124902
ExecutionTime = 5.63 s  ClockTime = 6 s

Time = 92

DILUPBiCGStab:  Solving for Ux, Initial residual = 0.00414871, Final residual = 1.06881e-05, No Iterations 1
DILUPBiCGStab:  Solving for Uy, Initial residual = 0.00433085, Final residual = 1.0968e-05, No Iterations 1
DILUPBiCGStab:  Solving for Uz, Initial residual = 0.00410909, Final residual = 9.95244e-06, No Iterations 1
DICPCG:  Solving for G, Initial residual = 0.000649418, Final residual = 6.05424e-05, No Iterations 19
DILUPBiCGStab:  Solving for h, Initial residual = 0.00165918, Final residual = 7.22657e-07, No Iterations 1
DICPCG:  Solving for p_rgh, Initial residual = 0.00429889, Final residual = 3.93287e-05, No Iterations 21
time step continuity errors : sum local = 8.4949e-07, global = -2.43269e-07, cumulative = 0.000124659
ExecutionTime = 5.7 s  ClockTime = 6 s

Time = 93

DILUPBiCGStab:  Solving for Ux, Initial residual = 0.0040821, Final residual = 1.04919e-05, No Iterations 1
DILUPBiCGStab:  Solving for Uy, Initial residual = 0.00426881, Final residual = 1.07882e-05, No Iterations 1
DILUPBiCGStab:  Solving for Uz, Initial residual = 0.00404669, Final residual = 9.82955e-06, No Iterations 1
DICPCG:  Solving for G, Initial residual = 0.000647747, Final residual = 6.04761e-05, No Iterations 19
DILUPBiCGStab:  Solving for h, Initial residual = 0.00165431, Final residual = 7.21692e-07, No Iterations 1
DICPCG:  Solving for p_rgh, Initial residual = 0.00424841, Final residual = 4.18783e-05, No Iterations 25
time step continuity errors : sum local = 9.03087e-07, global = -2.52101e-07, cumulative = 0.000124407
ExecutionTime = 5.76 s  ClockTime = 6 s

Time = 94

DILUPBiCGStab:  Solving for Ux, Initial residual = 0.00401332, Final residual = 1.02859e-05, No Iterations 1
DILUPBiCGStab:  Solving for Uy, Initial residual = 0.00421542, Final residual = 1.06391e-05, No Iterations 1
DILUPBiCGStab:  Solving for Uz, Initial residual = 0.00398589, Final residual = 9.70833e-06, No Iterations 1
DICPCG:  Solving for G, Initial residual = 0.000646637, Final residual = 6.12017e-05, No Iterations 19
DILUPBiCGStab:  Solving for h, Initial residual = 0.00164956, Final residual = 7.20684e-07, No Iterations 1
DICPCG:  Solving for p_rgh, Initial residual = 0.0042019, Final residual = 3.88602e-05, No Iterations 57
time step continuity errors : sum local = 8.36681e-07, global = -1.61335e-08, cumulative = 0.000124391
ExecutionTime = 5.84 s  ClockTime = 6 s

Time = 95

DILUPBiCGStab:  Solving for Ux, Initial residual = 0.0039481, Final residual = 1.00854e-05, No Iterations 1
DILUPBiCGStab:  Solving for Uy, Initial residual = 0.00416134, Final residual = 1.04897e-05, No Iterations 1
DILUPBiCGStab:  Solving for Uz, Initial residual = 0.00392452, Final residual = 9.58727e-06, No Iterations 1
DICPCG:  Solving for G, Initial residual = 0.000645052, Final residual = 5.99906e-05, No Iterations 19
DILUPBiCGStab:  Solving for h, Initial residual = 0.00164492, Final residual = 7.19632e-07, No Iterations 1
DICPCG:  Solving for p_rgh, Initial residual = 0.00414574, Final residual = 3.76957e-05, No Iterations 21
time step continuity errors : sum local = 8.10321e-07, global = 1.27588e-07, cumulative = 0.000124518
ExecutionTime = 5.9 s  ClockTime = 6 s

Time = 96

DILUPBiCGStab:  Solving for Ux, Initial residual = 0.00388586, Final residual = 9.90469e-06, No Iterations 1
DILUPBiCGStab:  Solving for Uy, Initial residual = 0.00410557, Final residual = 1.03297e-05, No Iterations 1
DILUPBiCGStab:  Solving for Uz, Initial residual = 0.00386676, Final residual = 9.47099e-06, No Iterations 1
DICPCG:  Solving for G, Initial residual = 0.000643931, Final residual = 6.0905e-05, No Iterations 19
DILUPBiCGStab:  Solving for h, Initial residual = 0.00164037, Final residual = 7.18559e-07, No Iterations 1
DICPCG:  Solving for p_rgh, Initial residual = 0.00409848, Final residual = 3.59612e-05, No Iterations 57
time step continuity errors : sum local = 7.71894e-07, global = 2.85957e-09, cumulative = 0.000124521
ExecutionTime = 5.97 s  ClockTime = 6 s

Time = 97

DILUPBiCGStab:  Solving for Ux, Initial residual = 0.00381803, Final residual = 9.70671e-06, No Iterations 1
DILUPBiCGStab:  Solving for Uy, Initial residual = 0.00405702, Final residual = 1.01889e-05, No Iterations 1
DILUPBiCGStab:  Solving for Uz, Initial residual = 0.0038144, Final residual = 9.35976e-06, No Iterations 1
DICPCG:  Solving for G, Initial residual = 0.000642414, Final residual = 5.86994e-05, No Iterations 19
DILUPBiCGStab:  Solving for h, Initial residual = 0.00163592, Final residual = 7.17459e-07, No Iterations 1
DICPCG:  Solving for p_rgh, Initial residual = 0.00406115, Final residual = 3.70144e-05, No Iterations 21
time step continuity errors : sum local = 7.93413e-07, global = -1.82628e-08, cumulative = 0.000124503
[...]
DICPCG:  Solving for G, Initial residual = 6.02905e-05, Final residual = 5.91797e-06, No Iterations 21
DILUPBiCGStab:  Solving for h, Initial residual = 0.000150935, Final residual = 6.96369e-08, No Iterations 1
DICPCG:  Solving for p_rgh, Initial residual = 1.54753e-05, Final residual = 8.71305e-07, No Iterations 52
time step continuity errors : sum local = 1.74266e-08, global = -8.74243e-11, cumulative = 0.000129088
ExecutionTime = 340.41 s  ClockTime = 343 s

Time = 4977

DILUPBiCGStab:  Solving for Ux, Initial residual = 8.30777e-06, Final residual = 2.6342e-07, No Iterations 1
DILUPBiCGStab:  Solving for Uy, Initial residual = 7.4152e-06, Final residual = 2.94543e-07, No Iterations 1
DILUPBiCGStab:  Solving for Uz, Initial residual = 9.11358e-06, Final residual = 3.44225e-07, No Iterations 1
DICPCG:  Solving for G, Initial residual = 6.02338e-05, Final residual = 5.27147e-06, No Iterations 22
DILUPBiCGStab:  Solving for h, Initial residual = 0.000150923, Final residual = 6.96312e-08, No Iterations 1
DICPCG:  Solving for p_rgh, Initial residual = 1.54257e-05, Final residual = 9.76631e-07, No Iterations 51
time step continuity errors : sum local = 1.95332e-08, global = -8.30844e-11, cumulative = 0.000129088
ExecutionTime = 340.47 s  ClockTime = 343 s

Time = 4978

DILUPBiCGStab:  Solving for Ux, Initial residual = 8.30037e-06, Final residual = 2.63148e-07, No Iterations 1
DILUPBiCGStab:  Solving for Uy, Initial residual = 7.41374e-06, Final residual = 2.94713e-07, No Iterations 1
DILUPBiCGStab:  Solving for Uz, Initial residual = 9.11409e-06, Final residual = 3.44358e-07, No Iterations 1
DICPCG:  Solving for G, Initial residual = 6.02669e-05, Final residual = 5.96067e-06, No Iterations 21
DILUPBiCGStab:  Solving for h, Initial residual = 0.000150911, Final residual = 6.96255e-08, No Iterations 1
DICPCG:  Solving for p_rgh, Initial residual = 1.54661e-05, Final residual = 8.63532e-07, No Iterations 52
time step continuity errors : sum local = 1.72712e-08, global = -8.74325e-11, cumulative = 0.000129088
ExecutionTime = 340.52 s  ClockTime = 343 s

Time = 4979

DILUPBiCGStab:  Solving for Ux, Initial residual = 8.3051e-06, Final residual = 2.63323e-07, No Iterations 1
DILUPBiCGStab:  Solving for Uy, Initial residual = 7.41513e-06, Final residual = 2.94543e-07, No Iterations 1
DILUPBiCGStab:  Solving for Uz, Initial residual = 9.1111e-06, Final residual = 3.44131e-07, No Iterations 1
DICPCG:  Solving for G, Initial residual = 6.02301e-05, Final residual = 5.19442e-06, No Iterations 22
DILUPBiCGStab:  Solving for h, Initial residual = 0.000150899, Final residual = 6.96198e-08, No Iterations 1
DICPCG:  Solving for p_rgh, Initial residual = 1.54173e-05, Final residual = 9.77027e-07, No Iterations 51
time step continuity errors : sum local = 1.95411e-08, global = -8.34922e-11, cumulative = 0.000129088
ExecutionTime = 340.58 s  ClockTime = 343 s

Time = 4980

DILUPBiCGStab:  Solving for Ux, Initial residual = 8.29768e-06, Final residual = 2.63061e-07, No Iterations 1
DILUPBiCGStab:  Solving for Uy, Initial residual = 7.41387e-06, Final residual = 2.94728e-07, No Iterations 1
DILUPBiCGStab:  Solving for Uz, Initial residual = 9.11162e-06, Final residual = 3.44251e-07, No Iterations 1
DICPCG:  Solving for G, Initial residual = 6.02652e-05, Final residual = 5.91791e-06, No Iterations 21
DILUPBiCGStab:  Solving for h, Initial residual = 0.000150887, Final residual = 6.96141e-08, No Iterations 1
DICPCG:  Solving for p_rgh, Initial residual = 1.5464e-05, Final residual = 8.69879e-07, No Iterations 52
time step continuity errors : sum local = 1.73981e-08, global = -8.73351e-11, cumulative = 0.000129088
ExecutionTime = 340.65 s  ClockTime = 343 s

Time = 4981

DILUPBiCGStab:  Solving for Ux, Initial residual = 8.30252e-06, Final residual = 2.63231e-07, No Iterations 1
DILUPBiCGStab:  Solving for Uy, Initial residual = 7.41531e-06, Final residual = 2.94564e-07, No Iterations 1
DILUPBiCGStab:  Solving for Uz, Initial residual = 9.1086e-06, Final residual = 3.44018e-07, No Iterations 1
DICPCG:  Solving for G, Initial residual = 6.02141e-05, Final residual = 5.25257e-06, No Iterations 22
DILUPBiCGStab:  Solving for h, Initial residual = 0.000150875, Final residual = 6.96084e-08, No Iterations 1
DICPCG:  Solving for p_rgh, Initial residual = 1.54187e-05, Final residual = 9.80473e-07, No Iterations 51
time step continuity errors : sum local = 1.961e-08, global = -8.32513e-11, cumulative = 0.000129088
ExecutionTime = 340.7 s  ClockTime = 344 s

Time = 4982

DILUPBiCGStab:  Solving for Ux, Initial residual = 8.29527e-06, Final residual = 2.62972e-07, No Iterations 1
DILUPBiCGStab:  Solving for Uy, Initial residual = 7.41378e-06, Final residual = 2.94725e-07, No Iterations 1
DILUPBiCGStab:  Solving for Uz, Initial residual = 9.10907e-06, Final residual = 3.44155e-07, No Iterations 1
DICPCG:  Solving for G, Initial residual = 6.02486e-05, Final residual = 5.95595e-06, No Iterations 21
DILUPBiCGStab:  Solving for h, Initial residual = 0.000150864, Final residual = 6.96028e-08, No Iterations 1
DICPCG:  Solving for p_rgh, Initial residual = 1.54604e-05, Final residual = 8.73182e-07, No Iterations 52
time step continuity errors : sum local = 1.74641e-08, global = -8.67236e-11, cumulative = 0.000129088
ExecutionTime = 340.76 s  ClockTime = 344 s

Time = 4983

DILUPBiCGStab:  Solving for Ux, Initial residual = 8.29985e-06, Final residual = 2.63126e-07, No Iterations 1
DILUPBiCGStab:  Solving for Uy, Initial residual = 7.41515e-06, Final residual = 2.94563e-07, No Iterations 1
DILUPBiCGStab:  Solving for Uz, Initial residual = 9.10613e-06, Final residual = 3.43927e-07, No Iterations 1
DICPCG:  Solving for G, Initial residual = 6.02162e-05, Final residual = 5.19858e-06, No Iterations 22
DILUPBiCGStab:  Solving for h, Initial residual = 0.000150852, Final residual = 6.95971e-08, No Iterations 1
DICPCG:  Solving for p_rgh, Initial residual = 1.54138e-05, Final residual = 9.79289e-07, No Iterations 51
time step continuity errors : sum local = 1.95863e-08, global = -8.33999e-11, cumulative = 0.000129088
ExecutionTime = 340.83 s  ClockTime = 344 s

Time = 4984

DILUPBiCGStab:  Solving for Ux, Initial residual = 8.2927e-06, Final residual = 2.62895e-07, No Iterations 1
DILUPBiCGStab:  Solving for Uy, Initial residual = 7.4139e-06, Final residual = 2.94731e-07, No Iterations 1
DILUPBiCGStab:  Solving for Uz, Initial residual = 9.10656e-06, Final residual = 3.44047e-07, No Iterations 1
DICPCG:  Solving for G, Initial residual = 6.02517e-05, Final residual = 5.91891e-06, No Iterations 21
DILUPBiCGStab:  Solving for h, Initial residual = 0.00015084, Final residual = 6.95914e-08, No Iterations 1
DICPCG:  Solving for p_rgh, Initial residual = 1.54615e-05, Final residual = 8.71614e-07, No Iterations 52
time step continuity errors : sum local = 1.74327e-08, global = -8.74707e-11, cumulative = 0.000129088
ExecutionTime = 340.9 s  ClockTime = 344 s

Time = 4985

DILUPBiCGStab:  Solving for Ux, Initial residual = 8.29752e-06, Final residual = 2.63062e-07, No Iterations 1
DILUPBiCGStab:  Solving for Uy, Initial residual = 7.41527e-06, Final residual = 2.9456e-07, No Iterations 1
DILUPBiCGStab:  Solving for Uz, Initial residual = 9.10354e-06, Final residual = 3.43814e-07, No Iterations 1
DICPCG:  Solving for G, Initial residual = 6.01921e-05, Final residual = 5.25915e-06, No Iterations 22
DILUPBiCGStab:  Solving for h, Initial residual = 0.000150828, Final residual = 6.95857e-08, No Iterations 1
DICPCG:  Solving for p_rgh, Initial residual = 1.54118e-05, Final residual = 9.77038e-07, No Iterations 51
time step continuity errors : sum local = 1.95412e-08, global = -8.31686e-11, cumulative = 0.000129088
ExecutionTime = 340.96 s  ClockTime = 344 s

Time = 4986

DILUPBiCGStab:  Solving for Ux, Initial residual = 8.29014e-06, Final residual = 2.62791e-07, No Iterations 1
DILUPBiCGStab:  Solving for Uy, Initial residual = 7.41382e-06, Final residual = 2.94731e-07, No Iterations 1
DILUPBiCGStab:  Solving for Uz, Initial residual = 9.10404e-06, Final residual = 3.43947e-07, No Iterations 1
DICPCG:  Solving for G, Initial residual = 6.02304e-05, Final residual = 5.95154e-06, No Iterations 21
DILUPBiCGStab:  Solving for h, Initial residual = 0.000150816, Final residual = 6.95801e-08, No Iterations 1
DICPCG:  Solving for p_rgh, Initial residual = 1.54523e-05, Final residual = 8.639e-07, No Iterations 52
time step continuity errors : sum local = 1.72784e-08, global = -8.74871e-11, cumulative = 0.000129088
ExecutionTime = 341.03 s  ClockTime = 344 s

Time = 4987

DILUPBiCGStab:  Solving for Ux, Initial residual = 8.29488e-06, Final residual = 2.62966e-07, No Iterations 1
DILUPBiCGStab:  Solving for Uy, Initial residual = 7.41521e-06, Final residual = 2.9456e-07, No Iterations 1
DILUPBiCGStab:  Solving for Uz, Initial residual = 9.10111e-06, Final residual = 3.43722e-07, No Iterations 1
DICPCG:  Solving for G, Initial residual = 6.01935e-05, Final residual = 5.1925e-06, No Iterations 22
DILUPBiCGStab:  Solving for h, Initial residual = 0.000150804, Final residual = 6.95744e-08, No Iterations 1
DICPCG:  Solving for p_rgh, Initial residual = 1.54035e-05, Final residual = 9.77422e-07, No Iterations 51
time step continuity errors : sum local = 1.95489e-08, global = -8.35744e-11, cumulative = 0.000129087
ExecutionTime = 341.09 s  ClockTime = 344 s

Time = 4988

DILUPBiCGStab:  Solving for Ux, Initial residual = 8.28746e-06, Final residual = 2.62705e-07, No Iterations 1
DILUPBiCGStab:  Solving for Uy, Initial residual = 7.41396e-06, Final residual = 2.94746e-07, No Iterations 1
DILUPBiCGStab:  Solving for Uz, Initial residual = 9.10163e-06, Final residual = 3.43842e-07, No Iterations 1
DICPCG:  Solving for G, Initial residual = 6.02295e-05, Final residual = 5.9119e-06, No Iterations 21
DILUPBiCGStab:  Solving for h, Initial residual = 0.000150792, Final residual = 6.95687e-08, No Iterations 1
DICPCG:  Solving for p_rgh, Initial residual = 1.54502e-05, Final residual = 8.70217e-07, No Iterations 52
time step continuity errors : sum local = 1.74047e-08, global = -8.73791e-11, cumulative = 0.000129087
ExecutionTime = 341.16 s  ClockTime = 344 s

Time = 4989

DILUPBiCGStab:  Solving for Ux, Initial residual = 8.2923e-06, Final residual = 2.62874e-07, No Iterations 1
DILUPBiCGStab:  Solving for Uy, Initial residual = 7.41541e-06, Final residual = 2.9458e-07, No Iterations 1
DILUPBiCGStab:  Solving for Uz, Initial residual = 9.09865e-06, Final residual = 3.43611e-07, No Iterations 1
DICPCG:  Solving for G, Initial residual = 6.01727e-05, Final residual = 5.24514e-06, No Iterations 22
DILUPBiCGStab:  Solving for h, Initial residual = 0.00015078, Final residual = 6.9563e-08, No Iterations 1
DICPCG:  Solving for p_rgh, Initial residual = 1.54048e-05, Final residual = 9.809e-07, No Iterations 51
time step continuity errors : sum local = 1.96184e-08, global = -8.3334e-11, cumulative = 0.000129087
ExecutionTime = 341.22 s  ClockTime = 344 s

Time = 4990

DILUPBiCGStab:  Solving for Ux, Initial residual = 8.28506e-06, Final residual = 2.62616e-07, No Iterations 1
DILUPBiCGStab:  Solving for Uy, Initial residual = 7.41388e-06, Final residual = 2.94743e-07, No Iterations 1
DILUPBiCGStab:  Solving for Uz, Initial residual = 9.09911e-06, Final residual = 3.43749e-07, No Iterations 1
DICPCG:  Solving for G, Initial residual = 6.02076e-05, Final residual = 5.94733e-06, No Iterations 21
DILUPBiCGStab:  Solving for h, Initial residual = 0.000150768, Final residual = 6.95574e-08, No Iterations 1
DICPCG:  Solving for p_rgh, Initial residual = 1.54468e-05, Final residual = 8.73614e-07, No Iterations 52
time step continuity errors : sum local = 1.74726e-08, global = -8.67688e-11, cumulative = 0.000129087
ExecutionTime = 341.28 s  ClockTime = 344 s

Time = 4991

DILUPBiCGStab:  Solving for Ux, Initial residual = 8.28964e-06, Final residual = 2.6277e-07, No Iterations 1
DILUPBiCGStab:  Solving for Uy, Initial residual = 7.41525e-06, Final residual = 2.9458e-07, No Iterations 1
DILUPBiCGStab:  Solving for Uz, Initial residual = 9.09622e-06, Final residual = 3.43521e-07, No Iterations 1
DICPCG:  Solving for G, Initial residual = 6.01746e-05, Final residual = 6.01657e-06, No Iterations 21
DILUPBiCGStab:  Solving for h, Initial residual = 0.000150756, Final residual = 6.95517e-08, No Iterations 1
DICPCG:  Solving for p_rgh, Initial residual = 1.54001e-05, Final residual = 9.79706e-07, No Iterations 51
time step continuity errors : sum local = 1.95945e-08, global = -8.34793e-11, cumulative = 0.000129087
ExecutionTime = 341.35 s  ClockTime = 344 s

Time = 4992

DILUPBiCGStab:  Solving for Ux, Initial residual = 8.2825e-06, Final residual = 2.62539e-07, No Iterations 1
DILUPBiCGStab:  Solving for Uy, Initial residual = 7.41402e-06, Final residual = 2.94749e-07, No Iterations 1
DILUPBiCGStab:  Solving for Uz, Initial residual = 9.09665e-06, Final residual = 3.43642e-07, No Iterations 1
DICPCG:  Solving for G, Initial residual = 6.01068e-05, Final residual = 5.96634e-06, No Iterations 21
DILUPBiCGStab:  Solving for h, Initial residual = 0.000150744, Final residual = 6.95461e-08, No Iterations 1
DICPCG:  Solving for p_rgh, Initial residual = 1.5448e-05, Final residual = 8.71918e-07, No Iterations 52
time step continuity errors : sum local = 1.74387e-08, global = -8.75125e-11, cumulative = 0.000129087
ExecutionTime = 341.42 s  ClockTime = 344 s

Time = 4993

DILUPBiCGStab:  Solving for Ux, Initial residual = 8.28732e-06, Final residual = 2.62706e-07, No Iterations 1
DILUPBiCGStab:  Solving for Uy, Initial residual = 7.41538e-06, Final residual = 2.94577e-07, No Iterations 1
DILUPBiCGStab:  Solving for Uz, Initial residual = 9.09368e-06, Final residual = 3.43412e-07, No Iterations 1
DICPCG:  Solving for G, Initial residual = 6.00875e-05, Final residual = 5.31344e-06, No Iterations 22
DILUPBiCGStab:  Solving for h, Initial residual = 0.000150732, Final residual = 6.95404e-08, No Iterations 1
DICPCG:  Solving for p_rgh, Initial residual = 1.5398e-05, Final residual = 9.77455e-07, No Iterations 51
time step continuity errors : sum local = 1.95495e-08, global = -8.32511e-11, cumulative = 0.000129087
ExecutionTime = 341.49 s  ClockTime = 344 s

Time = 4994

DILUPBiCGStab:  Solving for Ux, Initial residual = 8.27995e-06, Final residual = 2.62436e-07, No Iterations 1
DILUPBiCGStab:  Solving for Uy, Initial residual = 7.41395e-06, Final residual = 2.9475e-07, No Iterations 1
DILUPBiCGStab:  Solving for Uz, Initial residual = 9.09417e-06, Final residual = 3.43544e-07, No Iterations 1
DICPCG:  Solving for G, Initial residual = 6.02196e-05, Final residual = 5.99299e-06, No Iterations 21
DILUPBiCGStab:  Solving for h, Initial residual = 0.000150721, Final residual = 6.95347e-08, No Iterations 1
DICPCG:  Solving for p_rgh, Initial residual = 1.54387e-05, Final residual = 8.64272e-07, No Iterations 52
time step continuity errors : sum local = 1.72858e-08, global = -8.75348e-11, cumulative = 0.000129087
ExecutionTime = 341.55 s  ClockTime = 344 s

Time = 4995

DILUPBiCGStab:  Solving for Ux, Initial residual = 8.28468e-06, Final residual = 2.62611e-07, No Iterations 1
DILUPBiCGStab:  Solving for Uy, Initial residual = 7.41533e-06, Final residual = 2.94578e-07, No Iterations 1
DILUPBiCGStab:  Solving for Uz, Initial residual = 9.09128e-06, Final residual = 3.4332e-07, No Iterations 1
DICPCG:  Solving for G, Initial residual = 6.01501e-05, Final residual = 5.28395e-06, No Iterations 22
DILUPBiCGStab:  Solving for h, Initial residual = 0.000150709, Final residual = 6.9529e-08, No Iterations 1
DICPCG:  Solving for p_rgh, Initial residual = 1.53897e-05, Final residual = 9.77762e-07, No Iterations 51
time step continuity errors : sum local = 1.95556e-08, global = -8.3649e-11, cumulative = 0.000129087
ExecutionTime = 341.61 s  ClockTime = 344 s

Time = 4996

DILUPBiCGStab:  Solving for Ux, Initial residual = 8.27728e-06, Final residual = 2.62351e-07, No Iterations 1
DILUPBiCGStab:  Solving for Uy, Initial residual = 7.41409e-06, Final residual = 2.94765e-07, No Iterations 1
DILUPBiCGStab:  Solving for Uz, Initial residual = 9.09179e-06, Final residual = 3.4344e-07, No Iterations 1
DICPCG:  Solving for G, Initial residual = 6.01912e-05, Final residual = 5.97672e-06, No Iterations 21
DILUPBiCGStab:  Solving for h, Initial residual = 0.000150697, Final residual = 6.95234e-08, No Iterations 1
DICPCG:  Solving for p_rgh, Initial residual = 1.54366e-05, Final residual = 8.70529e-07, No Iterations 52
time step continuity errors : sum local = 1.74109e-08, global = -8.74139e-11, cumulative = 0.000129087
ExecutionTime = 341.68 s  ClockTime = 345 s

Time = 4997

DILUPBiCGStab:  Solving for Ux, Initial residual = 8.28212e-06, Final residual = 2.62519e-07, No Iterations 1
DILUPBiCGStab:  Solving for Uy, Initial residual = 7.41553e-06, Final residual = 2.94599e-07, No Iterations 1
DILUPBiCGStab:  Solving for Uz, Initial residual = 9.08887e-06, Final residual = 3.43211e-07, No Iterations 1
DICPCG:  Solving for G, Initial residual = 6.01362e-05, Final residual = 5.18297e-06, No Iterations 22
DILUPBiCGStab:  Solving for h, Initial residual = 0.000150685, Final residual = 6.95177e-08, No Iterations 1
DICPCG:  Solving for p_rgh, Initial residual = 1.5391e-05, Final residual = 9.81337e-07, No Iterations 51
time step continuity errors : sum local = 1.96271e-08, global = -8.34146e-11, cumulative = 0.000129087
ExecutionTime = 341.74 s  ClockTime = 345 s

Time = 4998

DILUPBiCGStab:  Solving for Ux, Initial residual = 8.27488e-06, Final residual = 2.62263e-07, No Iterations 1
DILUPBiCGStab:  Solving for Uy, Initial residual = 7.41402e-06, Final residual = 2.94762e-07, No Iterations 1
DILUPBiCGStab:  Solving for Uz, Initial residual = 9.08932e-06, Final residual = 3.43349e-07, No Iterations 1
DICPCG:  Solving for G, Initial residual = 6.01813e-05, Final residual = 5.9447e-06, No Iterations 21
DILUPBiCGStab:  Solving for h, Initial residual = 0.000150673, Final residual = 6.95121e-08, No Iterations 1
DICPCG:  Solving for p_rgh, Initial residual = 1.54333e-05, Final residual = 8.7405e-07, No Iterations 52
time step continuity errors : sum local = 1.74813e-08, global = -8.68094e-11, cumulative = 0.000129087
ExecutionTime = 341.81 s  ClockTime = 345 s

Time = 4999

DILUPBiCGStab:  Solving for Ux, Initial residual = 8.27947e-06, Final residual = 2.62415e-07, No Iterations 1
DILUPBiCGStab:  Solving for Uy, Initial residual = 7.41538e-06, Final residual = 2.94598e-07, No Iterations 1
DILUPBiCGStab:  Solving for Uz, Initial residual = 9.08648e-06, Final residual = 3.43124e-07, No Iterations 1
DICPCG:  Solving for G, Initial residual = 6.01252e-05, Final residual = 5.29234e-06, No Iterations 22
DILUPBiCGStab:  Solving for h, Initial residual = 0.000150661, Final residual = 6.95064e-08, No Iterations 1
DICPCG:  Solving for p_rgh, Initial residual = 1.53864e-05, Final residual = 9.80167e-07, No Iterations 51
time step continuity errors : sum local = 1.96036e-08, global = -8.3554e-11, cumulative = 0.000129086
ExecutionTime = 341.87 s  ClockTime = 345 s

Time = 5000

DILUPBiCGStab:  Solving for Ux, Initial residual = 8.27234e-06, Final residual = 2.62186e-07, No Iterations 1
DILUPBiCGStab:  Solving for Uy, Initial residual = 7.41416e-06, Final residual = 2.94768e-07, No Iterations 1
DILUPBiCGStab:  Solving for Uz, Initial residual = 9.08691e-06, Final residual = 3.43245e-07, No Iterations 1
DICPCG:  Solving for G, Initial residual = 6.01714e-05, Final residual = 5.94422e-06, No Iterations 21
DILUPBiCGStab:  Solving for h, Initial residual = 0.000150649, Final residual = 6.95007e-08, No Iterations 1
DICPCG:  Solving for p_rgh, Initial residual = 1.54344e-05, Final residual = 8.72178e-07, No Iterations 52
time step continuity errors : sum local = 1.74438e-08, global = -8.75505e-11, cumulative = 0.000129086
ExecutionTime = 341.96 s  ClockTime = 345 s

End

Finalising parallel run
