/*---------------------------------------------------------------------------*\
  =========                 |
  \\      /  F ield         | OpenFOAM: The Open Source CFD Toolbox
   \\    /   O peration     | Website:  https://openfoam.org
    \\  /    A nd           | Version:  9
     \\/     M anipulation  |
\*---------------------------------------------------------------------------*/
Build  : 9-89839ae3b8cd
Exec   : buoyantSimpleFoam -parallel
Date   : Apr 08 2022
Time   : 12:37:48
Host   : "0b4a0c9cd4c1"
PID    : 12624
I/O    : uncollated
Case   : /home/openfoam/STL_ThermalZones/STL_IGU_28_N6_AER4
nProcs : 16
Slaves : 
15
(
"0b4a0c9cd4c1.12625"
"0b4a0c9cd4c1.12626"
"0b4a0c9cd4c1.12627"
"0b4a0c9cd4c1.12628"
"0b4a0c9cd4c1.12629"
"0b4a0c9cd4c1.12630"
"0b4a0c9cd4c1.12631"
"0b4a0c9cd4c1.12632"
"0b4a0c9cd4c1.12633"
"0b4a0c9cd4c1.12634"
"0b4a0c9cd4c1.12635"
"0b4a0c9cd4c1.12636"
"0b4a0c9cd4c1.12637"
"0b4a0c9cd4c1.12638"
"0b4a0c9cd4c1.12639"
)

Pstream initialised with:
    floatTransfer      : 0
    nProcsSimpleSum    : 0
    commsType          : nonBlocking
    polling iterations : 0
sigFpe : Enabling floating point exception trapping (FOAM_SIGFPE).
fileModificationChecking : Monitoring run-time modified files using timeStampMaster (fileModificationSkew 10)
allowSystemOperations : Allowing user-supplied system call operations

// * * * * * * * * * * * * * * * * * * * * * * * * * * * * * * * * * * * * * //
Create time

Create mesh for time = 0


SIMPLE: Convergence criteria found
        p_rgh: tolerance 0.0001
        U: tolerance 0.0001
        h: tolerance 0.0001
        G: tolerance 1e-05
        "(k|epsilon|omega)": tolerance 0.0001

Reading thermophysical properties

Selecting thermodynamics package 
{
    type            heRhoThermo;
    mixture         pureMixture;
    transport       const;
    thermo          hConst;
    equationOfState perfectGas;
    specie          specie;
    energy          sensibleEnthalpy;
}

Reading field U

Reading/calculating face flux field phi

Creating turbulence model

Selecting turbulence model type RAS
Selecting RAS turbulence model kEpsilon
RAS
{
    model           kEpsilon;
    turbulence      off;
    printCoeffs     on;
    Cmu             0.09;
    C1              1.44;
    C2              1.92;
    C3              0;
    sigmak          1;
    sigmaEps        1.3;
}

Creating thermophysical transport model

Selecting thermophysical transport type RAS
Selecting default RAS thermophysical transport model unityLewisEddyDiffusivity

Reading g

Reading hRef
Calculating field g.h


Reading pRef
Reading field p_rgh

No MRF models present

Creating fvModels from "constant/fvModels"

Selecting finite volume model type radiation
    Name: radiation
Selecting radiationModel P1
Selecting absorptionEmissionModel constant
Selecting scatterModel none
Selecting soot model none
--> FOAM Warning : Creating fvConstraints from "system/fvOptions"

Selecting finite volume constraint type limitTemperature
    Name: limitTemperature
    - selecting all cells
    - selected 160281 cell(s) with volume 38.5043

Starting time loop

Time = 1

DILUPBiCGStab:  Solving for Ux, Initial residual = 1, Final residual = 0.00325724, No Iterations 1
DILUPBiCGStab:  Solving for Uy, Initial residual = 1, Final residual = 0.00283689, No Iterations 1
DILUPBiCGStab:  Solving for Uz, Initial residual = 1, Final residual = 0.00390105, No Iterations 1
DICPCG:  Solving for G, Initial residual = 1, Final residual = 0.0981195, No Iterations 23
DILUPBiCGStab:  Solving for h, Initial residual = 1, Final residual = 0.00936607, No Iterations 1
DICPCG:  Solving for p_rgh, Initial residual = 0.641963, Final residual = 0.00552285, No Iterations 69
time step continuity errors : sum local = 0.0226586, global = -0.000101813, cumulative = -0.000101813
ExecutionTime = 0.2 s  ClockTime = 1 s

Time = 2

DILUPBiCGStab:  Solving for Ux, Initial residual = 0.361207, Final residual = 0.00122983, No Iterations 1
DILUPBiCGStab:  Solving for Uy, Initial residual = 0.307587, Final residual = 0.00101002, No Iterations 1
DILUPBiCGStab:  Solving for Uz, Initial residual = 0.210788, Final residual = 0.000794165, No Iterations 1
DICPCG:  Solving for G, Initial residual = 0.567414, Final residual = 0.0498205, No Iterations 15
DILUPBiCGStab:  Solving for h, Initial residual = 0.0500286, Final residual = 0.000347098, No Iterations 1
DICPCG:  Solving for p_rgh, Initial residual = 0.793652, Final residual = 0.00671213, No Iterations 77
time step continuity errors : sum local = 0.00897533, global = 8.73067e-06, cumulative = -9.30819e-05
ExecutionTime = 0.33 s  ClockTime = 1 s

Time = 3

DILUPBiCGStab:  Solving for Ux, Initial residual = 0.288539, Final residual = 0.000972752, No Iterations 1
DILUPBiCGStab:  Solving for Uy, Initial residual = 0.290741, Final residual = 0.000865771, No Iterations 1
DILUPBiCGStab:  Solving for Uz, Initial residual = 0.885222, Final residual = 0.00368523, No Iterations 1
DICPCG:  Solving for G, Initial residual = 0.237557, Final residual = 0.0222452, No Iterations 12
DILUPBiCGStab:  Solving for h, Initial residual = 0.032874, Final residual = 0.000225999, No Iterations 1
DICPCG:  Solving for p_rgh, Initial residual = 0.797049, Final residual = 0.00787491, No Iterations 66
time step continuity errors : sum local = 0.00970589, global = -8.4915e-05, cumulative = -0.000177997
ExecutionTime = 0.47 s  ClockTime = 1 s

Time = 4

DILUPBiCGStab:  Solving for Ux, Initial residual = 0.281195, Final residual = 0.00103144, No Iterations 1
DILUPBiCGStab:  Solving for Uy, Initial residual = 0.269681, Final residual = 0.000948238, No Iterations 1
DILUPBiCGStab:  Solving for Uz, Initial residual = 0.204896, Final residual = 0.00113149, No Iterations 1
DICPCG:  Solving for G, Initial residual = 0.0484333, Final residual = 0.0043203, No Iterations 17
DILUPBiCGStab:  Solving for h, Initial residual = 0.0282889, Final residual = 0.000191856, No Iterations 1
DICPCG:  Solving for p_rgh, Initial residual = 0.622114, Final residual = 0.00557871, No Iterations 73
time step continuity errors : sum local = 0.00463575, global = 6.39094e-06, cumulative = -0.000171606
ExecutionTime = 0.61 s  ClockTime = 1 s

Time = 5

DILUPBiCGStab:  Solving for Ux, Initial residual = 0.256293, Final residual = 0.00106336, No Iterations 1
DILUPBiCGStab:  Solving for Uy, Initial residual = 0.271654, Final residual = 0.000955782, No Iterations 1
DILUPBiCGStab:  Solving for Uz, Initial residual = 0.762777, Final residual = 0.0035906, No Iterations 1
DICPCG:  Solving for G, Initial residual = 0.0146752, Final residual = 0.00134476, No Iterations 19
DILUPBiCGStab:  Solving for h, Initial residual = 0.0243692, Final residual = 0.00016655, No Iterations 1
DICPCG:  Solving for p_rgh, Initial residual = 0.692298, Final residual = 0.00601401, No Iterations 70
time step continuity errors : sum local = 0.00291142, global = -5.12812e-06, cumulative = -0.000176734
ExecutionTime = 0.75 s  ClockTime = 1 s

Time = 6

DILUPBiCGStab:  Solving for Ux, Initial residual = 0.21804, Final residual = 0.000792558, No Iterations 1
DILUPBiCGStab:  Solving for Uy, Initial residual = 0.226177, Final residual = 0.000877632, No Iterations 1
DILUPBiCGStab:  Solving for Uz, Initial residual = 0.32883, Final residual = 0.001352, No Iterations 1
DICPCG:  Solving for G, Initial residual = 0.00794595, Final residual = 0.000709304, No Iterations 20
DILUPBiCGStab:  Solving for h, Initial residual = 0.0211878, Final residual = 0.000148895, No Iterations 1
DICPCG:  Solving for p_rgh, Initial residual = 0.605129, Final residual = 0.00508179, No Iterations 71
time step continuity errors : sum local = 0.00148046, global = -1.81471e-06, cumulative = -0.000178549
ExecutionTime = 0.87 s  ClockTime = 1 s

Time = 7

DILUPBiCGStab:  Solving for Ux, Initial residual = 0.1597, Final residual = 0.000567658, No Iterations 1
DILUPBiCGStab:  Solving for Uy, Initial residual = 0.165909, Final residual = 0.000577508, No Iterations 1
DILUPBiCGStab:  Solving for Uz, Initial residual = 0.426764, Final residual = 0.00188576, No Iterations 1
DICPCG:  Solving for G, Initial residual = 0.00607822, Final residual = 0.000541309, No Iterations 21
DILUPBiCGStab:  Solving for h, Initial residual = 0.018595, Final residual = 0.000134851, No Iterations 1
DICPCG:  Solving for p_rgh, Initial residual = 0.51727, Final residual = 0.00474701, No Iterations 61
time step continuity errors : sum local = 0.000918801, global = 2.31808e-07, cumulative = -0.000178317
ExecutionTime = 1.01 s  ClockTime = 1 s

Time = 8

DILUPBiCGStab:  Solving for Ux, Initial residual = 0.0815084, Final residual = 0.000280347, No Iterations 1
DILUPBiCGStab:  Solving for Uy, Initial residual = 0.103616, Final residual = 0.000368118, No Iterations 1
DILUPBiCGStab:  Solving for Uz, Initial residual = 0.244086, Final residual = 0.000981736, No Iterations 1
DICPCG:  Solving for G, Initial residual = 0.00508392, Final residual = 0.000468262, No Iterations 21
DILUPBiCGStab:  Solving for h, Initial residual = 0.0164417, Final residual = 0.00012309, No Iterations 1
DICPCG:  Solving for p_rgh, Initial residual = 0.404087, Final residual = 0.00390416, No Iterations 70
time step continuity errors : sum local = 0.000567719, global = 7.71694e-07, cumulative = -0.000177545
ExecutionTime = 1.15 s  ClockTime = 2 s

Time = 9

DILUPBiCGStab:  Solving for Ux, Initial residual = 0.0733404, Final residual = 0.000280632, No Iterations 1
DILUPBiCGStab:  Solving for Uy, Initial residual = 0.0918823, Final residual = 0.000300356, No Iterations 1
DILUPBiCGStab:  Solving for Uz, Initial residual = 0.143597, Final residual = 0.000646502, No Iterations 1
DICPCG:  Solving for G, Initial residual = 0.00429067, Final residual = 0.000401157, No Iterations 21
DILUPBiCGStab:  Solving for h, Initial residual = 0.0147168, Final residual = 0.000113994, No Iterations 1
DICPCG:  Solving for p_rgh, Initial residual = 0.276536, Final residual = 0.00253356, No Iterations 67
time step continuity errors : sum local = 0.000288706, global = -8.23261e-07, cumulative = -0.000178369
ExecutionTime = 1.28 s  ClockTime = 2 s

Time = 10

DILUPBiCGStab:  Solving for Ux, Initial residual = 0.0444657, Final residual = 0.000125808, No Iterations 1
DILUPBiCGStab:  Solving for Uy, Initial residual = 0.062665, Final residual = 0.000185089, No Iterations 1
DILUPBiCGStab:  Solving for Uz, Initial residual = 0.123374, Final residual = 0.0005365, No Iterations 1
DICPCG:  Solving for G, Initial residual = 0.00366729, Final residual = 0.000344302, No Iterations 21
DILUPBiCGStab:  Solving for h, Initial residual = 0.0132961, Final residual = 0.000106568, No Iterations 1
DICPCG:  Solving for p_rgh, Initial residual = 0.208682, Final residual = 0.0020564, No Iterations 68
time step continuity errors : sum local = 0.000207825, global = -9.1847e-08, cumulative = -0.00017846
ExecutionTime = 1.44 s  ClockTime = 2 s

Time = 11

DILUPBiCGStab:  Solving for Ux, Initial residual = 0.0409177, Final residual = 0.000124727, No Iterations 1
DILUPBiCGStab:  Solving for Uy, Initial residual = 0.056044, Final residual = 0.000169951, No Iterations 1
DILUPBiCGStab:  Solving for Uz, Initial residual = 0.0459154, Final residual = 0.000163311, No Iterations 1
DICPCG:  Solving for G, Initial residual = 0.00316595, Final residual = 0.000299948, No Iterations 21
DILUPBiCGStab:  Solving for h, Initial residual = 0.0121101, Final residual = 0.000100687, No Iterations 1
DICPCG:  Solving for p_rgh, Initial residual = 0.115142, Final residual = 0.00103842, No Iterations 68
time step continuity errors : sum local = 9.62175e-05, global = -6.20475e-08, cumulative = -0.000178522
ExecutionTime = 1.57 s  ClockTime = 2 s

Time = 12

DILUPBiCGStab:  Solving for Ux, Initial residual = 0.0285802, Final residual = 7.90679e-05, No Iterations 1
DILUPBiCGStab:  Solving for Uy, Initial residual = 0.0432953, Final residual = 0.000118831, No Iterations 1
DILUPBiCGStab:  Solving for Uz, Initial residual = 0.0537682, Final residual = 0.000195892, No Iterations 1
DICPCG:  Solving for G, Initial residual = 0.00275255, Final residual = 0.000260741, No Iterations 21
DILUPBiCGStab:  Solving for h, Initial residual = 0.011104, Final residual = 9.59896e-05, No Iterations 1
DICPCG:  Solving for p_rgh, Initial residual = 0.0867212, Final residual = 0.000751905, No Iterations 67
time step continuity errors : sum local = 6.64843e-05, global = -3.55559e-08, cumulative = -0.000178558
ExecutionTime = 1.71 s  ClockTime = 2 s

Time = 13

DILUPBiCGStab:  Solving for Ux, Initial residual = 0.0251775, Final residual = 7.7432e-05, No Iterations 1
DILUPBiCGStab:  Solving for Uy, Initial residual = 0.039253, Final residual = 0.000112946, No Iterations 1
DILUPBiCGStab:  Solving for Uz, Initial residual = 0.0304348, Final residual = 9.29225e-05, No Iterations 1
DICPCG:  Solving for G, Initial residual = 0.00246152, Final residual = 0.000233785, No Iterations 20
DILUPBiCGStab:  Solving for h, Initial residual = 0.0102376, Final residual = 9.21022e-05, No Iterations 1
DICPCG:  Solving for p_rgh, Initial residual = 0.0635943, Final residual = 0.000546937, No Iterations 68
time step continuity errors : sum local = 4.67452e-05, global = -7.59164e-08, cumulative = -0.000178634
ExecutionTime = 1.83 s  ClockTime = 2 s

Time = 14

DILUPBiCGStab:  Solving for Ux, Initial residual = 0.021852, Final residual = 6.23659e-05, No Iterations 1
DILUPBiCGStab:  Solving for Uy, Initial residual = 0.0346055, Final residual = 0.00010135, No Iterations 1
DILUPBiCGStab:  Solving for Uz, Initial residual = 0.0306953, Final residual = 0.000107635, No Iterations 1
DICPCG:  Solving for G, Initial residual = 0.00216331, Final residual = 0.000215846, No Iterations 20
DILUPBiCGStab:  Solving for h, Initial residual = 0.00948608, Final residual = 8.89258e-05, No Iterations 1
DICPCG:  Solving for p_rgh, Initial residual = 0.0521286, Final residual = 0.000508972, No Iterations 22
time step continuity errors : sum local = 4.22045e-05, global = -1.38819e-05, cumulative = -0.000192516
ExecutionTime = 1.94 s  ClockTime = 2 s

Time = 15

DILUPBiCGStab:  Solving for Ux, Initial residual = 0.0197846, Final residual = 5.49176e-05, No Iterations 1
DILUPBiCGStab:  Solving for Uy, Initial residual = 0.031251, Final residual = 9.39726e-05, No Iterations 1
DILUPBiCGStab:  Solving for Uz, Initial residual = 0.0238309, Final residual = 7.5742e-05, No Iterations 1
DICPCG:  Solving for G, Initial residual = 0.0019188, Final residual = 0.000188527, No Iterations 20
DILUPBiCGStab:  Solving for h, Initial residual = 0.00882562, Final residual = 8.63333e-05, No Iterations 1
DICPCG:  Solving for p_rgh, Initial residual = 0.0422215, Final residual = 0.000415596, No Iterations 57
time step continuity errors : sum local = 3.34409e-05, global = 5.47785e-08, cumulative = -0.000192461
ExecutionTime = 2.06 s  ClockTime = 2 s

Time = 16

DILUPBiCGStab:  Solving for Ux, Initial residual = 0.0179286, Final residual = 5.18751e-05, No Iterations 1
DILUPBiCGStab:  Solving for Uy, Initial residual = 0.0283746, Final residual = 8.63712e-05, No Iterations 1
DILUPBiCGStab:  Solving for Uz, Initial residual = 0.0211758, Final residual = 6.8067e-05, No Iterations 1
DICPCG:  Solving for G, Initial residual = 0.00169854, Final residual = 0.000156762, No Iterations 21
DILUPBiCGStab:  Solving for h, Initial residual = 0.00824059, Final residual = 2.67707e-06, No Iterations 1
DICPCG:  Solving for p_rgh, Initial residual = 0.0363814, Final residual = 0.000317234, No Iterations 64
time step continuity errors : sum local = 2.47251e-05, global = -8.19052e-08, cumulative = -0.000192543
ExecutionTime = 2.19 s  ClockTime = 3 s

Time = 17

DILUPBiCGStab:  Solving for Ux, Initial residual = 0.0163247, Final residual = 4.91044e-05, No Iterations 1
DILUPBiCGStab:  Solving for Uy, Initial residual = 0.0260138, Final residual = 8.20573e-05, No Iterations 1
DILUPBiCGStab:  Solving for Uz, Initial residual = 0.0193384, Final residual = 6.64699e-05, No Iterations 1
DICPCG:  Solving for G, Initial residual = 0.00152617, Final residual = 0.000141289, No Iterations 21
DILUPBiCGStab:  Solving for h, Initial residual = 0.00771946, Final residual = 2.58772e-06, No Iterations 1
DICPCG:  Solving for p_rgh, Initial residual = 0.0330225, Final residual = 0.000277248, No Iterations 19
time step continuity errors : sum local = 2.10362e-05, global = -3.05904e-06, cumulative = -0.000195602
ExecutionTime = 2.29 s  ClockTime = 3 s

Time = 18

DILUPBiCGStab:  Solving for Ux, Initial residual = 0.0150251, Final residual = 4.60595e-05, No Iterations 1
DILUPBiCGStab:  Solving for Uy, Initial residual = 0.024163, Final residual = 7.91801e-05, No Iterations 1
DILUPBiCGStab:  Solving for Uz, Initial residual = 0.0180718, Final residual = 6.62355e-05, No Iterations 1
DICPCG:  Solving for G, Initial residual = 0.00137682, Final residual = 0.000128718, No Iterations 21
DILUPBiCGStab:  Solving for h, Initial residual = 0.00725143, Final residual = 2.50749e-06, No Iterations 1
DICPCG:  Solving for p_rgh, Initial residual = 0.0302763, Final residual = 0.000277673, No Iterations 58
time step continuity errors : sum local = 2.0582e-05, global = 2.43102e-08, cumulative = -0.000195578
ExecutionTime = 2.41 s  ClockTime = 3 s

Time = 19

DILUPBiCGStab:  Solving for Ux, Initial residual = 0.0139268, Final residual = 4.31824e-05, No Iterations 1
DILUPBiCGStab:  Solving for Uy, Initial residual = 0.022512, Final residual = 7.49897e-05, No Iterations 1
DILUPBiCGStab:  Solving for Uz, Initial residual = 0.0167309, Final residual = 6.25076e-05, No Iterations 1
DICPCG:  Solving for G, Initial residual = 0.00125068, Final residual = 0.000114889, No Iterations 21
DILUPBiCGStab:  Solving for h, Initial residual = 0.00683082, Final residual = 2.43475e-06, No Iterations 1
DICPCG:  Solving for p_rgh, Initial residual = 0.0278335, Final residual = 0.000269834, No Iterations 17
time step continuity errors : sum local = 1.95648e-05, global = -5.36617e-06, cumulative = -0.000200944
ExecutionTime = 2.52 s  ClockTime = 3 s

Time = 20

DILUPBiCGStab:  Solving for Ux, Initial residual = 0.0130894, Final residual = 4.14228e-05, No Iterations 1
DILUPBiCGStab:  Solving for Uy, Initial residual = 0.0212169, Final residual = 7.1753e-05, No Iterations 1
DILUPBiCGStab:  Solving for Uz, Initial residual = 0.0156237, Final residual = 5.88206e-05, No Iterations 1
DICPCG:  Solving for G, Initial residual = 0.00114145, Final residual = 0.000104248, No Iterations 21
DILUPBiCGStab:  Solving for h, Initial residual = 0.0064531, Final residual = 2.3692e-06, No Iterations 1
DICPCG:  Solving for p_rgh, Initial residual = 0.025817, Final residual = 0.000225845, No Iterations 51
time step continuity errors : sum local = 1.6054e-05, global = -1.64764e-07, cumulative = -0.000201109
ExecutionTime = 2.65 s  ClockTime = 3 s

Time = 21

DILUPBiCGStab:  Solving for Ux, Initial residual = 0.0123923, Final residual = 3.99924e-05, No Iterations 1
DILUPBiCGStab:  Solving for Uy, Initial residual = 0.0200624, Final residual = 6.86211e-05, No Iterations 1
DILUPBiCGStab:  Solving for Uz, Initial residual = 0.0147382, Final residual = 5.60705e-05, No Iterations 1
DICPCG:  Solving for G, Initial residual = 0.00104641, Final residual = 9.52618e-05, No Iterations 21
DILUPBiCGStab:  Solving for h, Initial residual = 0.00611159, Final residual = 2.30959e-06, No Iterations 1
DICPCG:  Solving for p_rgh, Initial residual = 0.0241257, Final residual = 0.000208726, No Iterations 17
time step continuity errors : sum local = 1.45543e-05, global = -7.71737e-07, cumulative = -0.00020188
ExecutionTime = 2.77 s  ClockTime = 3 s

Time = 22

DILUPBiCGStab:  Solving for Ux, Initial residual = 0.0117369, Final residual = 3.81968e-05, No Iterations 1
DILUPBiCGStab:  Solving for Uy, Initial residual = 0.0191415, Final residual = 6.62559e-05, No Iterations 1
DILUPBiCGStab:  Solving for Uz, Initial residual = 0.0139998, Final residual = 5.37596e-05, No Iterations 1
DICPCG:  Solving for G, Initial residual = 0.00096307, Final residual = 8.61939e-05, No Iterations 21
DILUPBiCGStab:  Solving for h, Initial residual = 0.00580077, Final residual = 2.25541e-06, No Iterations 1
DICPCG:  Solving for p_rgh, Initial residual = 0.0226089, Final residual = 0.000220937, No Iterations 16
time step continuity errors : sum local = 1.51442e-05, global = -4.57231e-07, cumulative = -0.000202338
ExecutionTime = 2.87 s  ClockTime = 3 s

Time = 23

DILUPBiCGStab:  Solving for Ux, Initial residual = 0.0111438, Final residual = 3.65169e-05, No Iterations 1
DILUPBiCGStab:  Solving for Uy, Initial residual = 0.0182418, Final residual = 6.37069e-05, No Iterations 1
DILUPBiCGStab:  Solving for Uz, Initial residual = 0.013342, Final residual = 5.16261e-05, No Iterations 1
DICPCG:  Solving for G, Initial residual = 0.000889757, Final residual = 8.01643e-05, No Iterations 21
DILUPBiCGStab:  Solving for h, Initial residual = 0.00551694, Final residual = 2.20514e-06, No Iterations 1
DICPCG:  Solving for p_rgh, Initial residual = 0.0212217, Final residual = 0.000199338, No Iterations 14
time step continuity errors : sum local = 1.34528e-05, global = -1.34026e-06, cumulative = -0.000203678
ExecutionTime = 2.98 s  ClockTime = 3 s

Time = 24

DILUPBiCGStab:  Solving for Ux, Initial residual = 0.0106416, Final residual = 3.51283e-05, No Iterations 1
DILUPBiCGStab:  Solving for Uy, Initial residual = 0.0174521, Final residual = 6.14948e-05, No Iterations 1
DILUPBiCGStab:  Solving for Uz, Initial residual = 0.0127455, Final residual = 4.96265e-05, No Iterations 1
DICPCG:  Solving for G, Initial residual = 0.000825001, Final residual = 7.25696e-05, No Iterations 21
DILUPBiCGStab:  Solving for h, Initial residual = 0.0052568, Final residual = 2.1578e-06, No Iterations 1
DICPCG:  Solving for p_rgh, Initial residual = 0.0199768, Final residual = 0.000185949, No Iterations 15
time step continuity errors : sum local = 1.23759e-05, global = -2.65486e-06, cumulative = -0.000206333
ExecutionTime = 3.08 s  ClockTime = 3 s

Time = 25

DILUPBiCGStab:  Solving for Ux, Initial residual = 0.0101949, Final residual = 3.38371e-05, No Iterations 1
DILUPBiCGStab:  Solving for Uy, Initial residual = 0.0167797, Final residual = 5.9632e-05, No Iterations 1
DILUPBiCGStab:  Solving for Uz, Initial residual = 0.0122149, Final residual = 4.78054e-05, No Iterations 1
DICPCG:  Solving for G, Initial residual = 0.000767427, Final residual = 6.84296e-05, No Iterations 21
DILUPBiCGStab:  Solving for h, Initial residual = 0.00501776, Final residual = 2.11336e-06, No Iterations 1
DICPCG:  Solving for p_rgh, Initial residual = 0.0188109, Final residual = 0.000169808, No Iterations 55
time step continuity errors : sum local = 1.11639e-05, global = -1.89717e-07, cumulative = -0.000206522
ExecutionTime = 3.2 s  ClockTime = 4 s

Time = 26

DILUPBiCGStab:  Solving for Ux, Initial residual = 0.00983736, Final residual = 3.28162e-05, No Iterations 1
DILUPBiCGStab:  Solving for Uy, Initial residual = 0.016175, Final residual = 5.78801e-05, No Iterations 1
DILUPBiCGStab:  Solving for Uz, Initial residual = 0.0117315, Final residual = 4.6144e-05, No Iterations 1
DICPCG:  Solving for G, Initial residual = 0.000716347, Final residual = 6.24608e-05, No Iterations 21
DILUPBiCGStab:  Solving for h, Initial residual = 0.0047977, Final residual = 2.07132e-06, No Iterations 1
DICPCG:  Solving for p_rgh, Initial residual = 0.0177356, Final residual = 0.000172893, No Iterations 15
time step continuity errors : sum local = 1.12395e-05, global = 2.14202e-07, cumulative = -0.000206308
ExecutionTime = 3.3 s  ClockTime = 4 s

Time = 27

DILUPBiCGStab:  Solving for Ux, Initial residual = 0.00949348, Final residual = 3.1948e-05, No Iterations 1
DILUPBiCGStab:  Solving for Uy, Initial residual = 0.0155771, Final residual = 5.58267e-05, No Iterations 1
DILUPBiCGStab:  Solving for Uz, Initial residual = 0.0113039, Final residual = 4.46664e-05, No Iterations 1
DICPCG:  Solving for G, Initial residual = 0.00067059, Final residual = 5.90909e-05, No Iterations 21
DILUPBiCGStab:  Solving for h, Initial residual = 0.00459422, Final residual = 2.03113e-06, No Iterations 1
DICPCG:  Solving for p_rgh, Initial residual = 0.0167761, Final residual = 0.000163074, No Iterations 16
time step continuity errors : sum local = 1.04912e-05, global = 1.35089e-06, cumulative = -0.000204957
ExecutionTime = 3.41 s  ClockTime = 4 s

Time = 28

DILUPBiCGStab:  Solving for Ux, Initial residual = 0.00916684, Final residual = 3.09864e-05, No Iterations 1
DILUPBiCGStab:  Solving for Uy, Initial residual = 0.0150616, Final residual = 5.42389e-05, No Iterations 1
DILUPBiCGStab:  Solving for Uz, Initial residual = 0.0109105, Final residual = 4.32462e-05, No Iterations 1
DICPCG:  Solving for G, Initial residual = 0.000629546, Final residual = 5.44434e-05, No Iterations 21
DILUPBiCGStab:  Solving for h, Initial residual = 0.00440577, Final residual = 1.99266e-06, No Iterations 1
DICPCG:  Solving for p_rgh, Initial residual = 0.0159072, Final residual = 0.000152706, No Iterations 16
time step continuity errors : sum local = 9.72921e-06, global = 2.06867e-06, cumulative = -0.000202889
ExecutionTime = 3.51 s  ClockTime = 4 s

Time = 29

DILUPBiCGStab:  Solving for Ux, Initial residual = 0.00885321, Final residual = 3.00328e-05, No Iterations 1
DILUPBiCGStab:  Solving for Uy, Initial residual = 0.01457, Final residual = 5.27176e-05, No Iterations 1
DILUPBiCGStab:  Solving for Uz, Initial residual = 0.0105531, Final residual = 4.19412e-05, No Iterations 1
DICPCG:  Solving for G, Initial residual = 0.000592572, Final residual = 5.1487e-05, No Iterations 21
DILUPBiCGStab:  Solving for h, Initial residual = 0.00423076, Final residual = 1.95568e-06, No Iterations 1
DICPCG:  Solving for p_rgh, Initial residual = 0.0151306, Final residual = 0.0001433, No Iterations 18
time step continuity errors : sum local = 9.04822e-06, global = 2.55121e-06, cumulative = -0.000200337
ExecutionTime = 3.62 s  ClockTime = 4 s

Time = 30

DILUPBiCGStab:  Solving for Ux, Initial residual = 0.00857659, Final residual = 2.92176e-05, No Iterations 1
DILUPBiCGStab:  Solving for Uy, Initial residual = 0.0141228, Final residual = 5.13654e-05, No Iterations 1
DILUPBiCGStab:  Solving for Uz, Initial residual = 0.0102273, Final residual = 4.07113e-05, No Iterations 1
DICPCG:  Solving for G, Initial residual = 0.000559213, Final residual = 5.58983e-05, No Iterations 20
DILUPBiCGStab:  Solving for h, Initial residual = 0.00406793, Final residual = 1.9199e-06, No Iterations 1
DICPCG:  Solving for p_rgh, Initial residual = 0.0144399, Final residual = 0.000123347, No Iterations 54
time step continuity errors : sum local = 7.7236e-06, global = 1.30208e-08, cumulative = -0.000200324
ExecutionTime = 3.75 s  ClockTime = 4 s

Time = 31

DILUPBiCGStab:  Solving for Ux, Initial residual = 0.00835484, Final residual = 2.85548e-05, No Iterations 1
DILUPBiCGStab:  Solving for Uy, Initial residual = 0.0136908, Final residual = 5.00382e-05, No Iterations 1
DILUPBiCGStab:  Solving for Uz, Initial residual = 0.00993059, Final residual = 3.95901e-05, No Iterations 1
DICPCG:  Solving for G, Initial residual = 0.000532478, Final residual = 5.28728e-05, No Iterations 20
DILUPBiCGStab:  Solving for h, Initial residual = 0.0039161, Final residual = 1.88513e-06, No Iterations 1
DICPCG:  Solving for p_rgh, Initial residual = 0.013824, Final residual = 0.000130528, No Iterations 16
time step continuity errors : sum local = 8.108e-06, global = -6.99003e-07, cumulative = -0.000201023
ExecutionTime = 3.85 s  ClockTime = 4 s

Time = 32

DILUPBiCGStab:  Solving for Ux, Initial residual = 0.00812232, Final residual = 2.79825e-05, No Iterations 1
DILUPBiCGStab:  Solving for Uy, Initial residual = 0.0132734, Final residual = 4.85442e-05, No Iterations 1
DILUPBiCGStab:  Solving for Uz, Initial residual = 0.00965935, Final residual = 3.85382e-05, No Iterations 1
DICPCG:  Solving for G, Initial residual = 0.000503835, Final residual = 4.89006e-05, No Iterations 20
DILUPBiCGStab:  Solving for h, Initial residual = 0.00377441, Final residual = 1.85104e-06, No Iterations 1
DICPCG:  Solving for p_rgh, Initial residual = 0.0132419, Final residual = 0.000131943, No Iterations 18
time step continuity errors : sum local = 8.13443e-06, global = -1.74304e-06, cumulative = -0.000202766
ExecutionTime = 3.97 s  ClockTime = 4 s

Time = 33

DILUPBiCGStab:  Solving for Ux, Initial residual = 0.00789351, Final residual = 2.73027e-05, No Iterations 1
DILUPBiCGStab:  Solving for Uy, Initial residual = 0.0129287, Final residual = 4.74218e-05, No Iterations 1
DILUPBiCGStab:  Solving for Uz, Initial residual = 0.0094067, Final residual = 3.75271e-05, No Iterations 1
DICPCG:  Solving for G, Initial residual = 0.000478474, Final residual = 4.71139e-05, No Iterations 20
DILUPBiCGStab:  Solving for h, Initial residual = 0.00364185, Final residual = 1.81787e-06, No Iterations 1
DICPCG:  Solving for p_rgh, Initial residual = 0.0127218, Final residual = 0.000122105, No Iterations 59
time step continuity errors : sum local = 7.47412e-06, global = -5.57679e-08, cumulative = -0.000202822
ExecutionTime = 4.09 s  ClockTime = 4 s

Time = 34

DILUPBiCGStab:  Solving for Ux, Initial residual = 0.00771387, Final residual = 2.6868e-05, No Iterations 1
DILUPBiCGStab:  Solving for Uy, Initial residual = 0.0125686, Final residual = 4.61498e-05, No Iterations 1
DILUPBiCGStab:  Solving for Uz, Initial residual = 0.00917953, Final residual = 3.66198e-05, No Iterations 1
DICPCG:  Solving for G, Initial residual = 0.00045599, Final residual = 4.41556e-05, No Iterations 20
DILUPBiCGStab:  Solving for h, Initial residual = 0.00351764, Final residual = 1.78506e-06, No Iterations 1
DICPCG:  Solving for p_rgh, Initial residual = 0.0122067, Final residual = 0.000113002, No Iterations 16
time step continuity errors : sum local = 6.87132e-06, global = 9.21394e-07, cumulative = -0.000201901
ExecutionTime = 4.19 s  ClockTime = 5 s

Time = 35

DILUPBiCGStab:  Solving for Ux, Initial residual = 0.00752743, Final residual = 2.64104e-05, No Iterations 1
DILUPBiCGStab:  Solving for Uy, Initial residual = 0.0122419, Final residual = 4.50441e-05, No Iterations 1
DILUPBiCGStab:  Solving for Uz, Initial residual = 0.00896951, Final residual = 3.57828e-05, No Iterations 1
DICPCG:  Solving for G, Initial residual = 0.000434778, Final residual = 4.21122e-05, No Iterations 20
DILUPBiCGStab:  Solving for h, Initial residual = 0.00340122, Final residual = 1.75258e-06, No Iterations 1
DICPCG:  Solving for p_rgh, Initial residual = 0.0117297, Final residual = 0.000112365, No Iterations 19
time step continuity errors : sum local = 6.78927e-06, global = 2.48853e-06, cumulative = -0.000199412
ExecutionTime = 4.31 s  ClockTime = 5 s

Time = 36

DILUPBiCGStab:  Solving for Ux, Initial residual = 0.00733607, Final residual = 2.58199e-05, No Iterations 1
DILUPBiCGStab:  Solving for Uy, Initial residual = 0.0119564, Final residual = 4.41504e-05, No Iterations 1
DILUPBiCGStab:  Solving for Uz, Initial residual = 0.00876777, Final residual = 3.49285e-05, No Iterations 1
DICPCG:  Solving for G, Initial residual = 0.000415584, Final residual = 3.92805e-05, No Iterations 20
DILUPBiCGStab:  Solving for h, Initial residual = 0.00329197, Final residual = 1.72052e-06, No Iterations 1
DICPCG:  Solving for p_rgh, Initial residual = 0.0113189, Final residual = 0.00010766, No Iterations 55
time step continuity errors : sum local = 6.4653e-06, global = -1.78465e-08, cumulative = -0.00019943
ExecutionTime = 4.43 s  ClockTime = 5 s

Time = 37

DILUPBiCGStab:  Solving for Ux, Initial residual = 0.00717874, Final residual = 2.51945e-05, No Iterations 1
DILUPBiCGStab:  Solving for Uy, Initial residual = 0.0116553, Final residual = 4.30853e-05, No Iterations 1
DILUPBiCGStab:  Solving for Uz, Initial residual = 0.00856954, Final residual = 3.41332e-05, No Iterations 1
DICPCG:  Solving for G, Initial residual = 0.000397607, Final residual = 3.74713e-05, No Iterations 20
DILUPBiCGStab:  Solving for h, Initial residual = 0.00318923, Final residual = 1.68888e-06, No Iterations 1
DICPCG:  Solving for p_rgh, Initial residual = 0.0109645, Final residual = 9.66345e-05, No Iterations 18
time step continuity errors : sum local = 5.76701e-06, global = -2.98342e-07, cumulative = -0.000199728
ExecutionTime = 4.54 s  ClockTime = 5 s

Time = 38

DILUPBiCGStab:  Solving for Ux, Initial residual = 0.00701752, Final residual = 2.48497e-05, No Iterations 1
DILUPBiCGStab:  Solving for Uy, Initial residual = 0.011369, Final residual = 4.20211e-05, No Iterations 1
DILUPBiCGStab:  Solving for Uz, Initial residual = 0.0084055, Final residual = 3.34279e-05, No Iterations 1
DICPCG:  Solving for G, Initial residual = 0.000381423, Final residual = 3.49008e-05, No Iterations 20
DILUPBiCGStab:  Solving for h, Initial residual = 0.00309259, Final residual = 1.65752e-06, No Iterations 1
DICPCG:  Solving for p_rgh, Initial residual = 0.0106054, Final residual = 9.27413e-05, No Iterations 28
time step continuity errors : sum local = 5.50299e-06, global = -1.20587e-06, cumulative = -0.000200934
ExecutionTime = 4.67 s  ClockTime = 5 s

Time = 39

DILUPBiCGStab:  Solving for Ux, Initial residual = 0.0068769, Final residual = 2.44461e-05, No Iterations 1
DILUPBiCGStab:  Solving for Uy, Initial residual = 0.0111188, Final residual = 4.10445e-05, No Iterations 1
DILUPBiCGStab:  Solving for Uz, Initial residual = 0.00824862, Final residual = 3.27587e-05, No Iterations 1
DICPCG:  Solving for G, Initial residual = 0.000366122, Final residual = 3.60638e-05, No Iterations 19
DILUPBiCGStab:  Solving for h, Initial residual = 0.00300164, Final residual = 1.62644e-06, No Iterations 1
DICPCG:  Solving for p_rgh, Initial residual = 0.0102623, Final residual = 0.000101848, No Iterations 17
time step continuity errors : sum local = 6.00981e-06, global = -1.29632e-06, cumulative = -0.000202231
ExecutionTime = 4.79 s  ClockTime = 5 s

Time = 40

DILUPBiCGStab:  Solving for Ux, Initial residual = 0.00675037, Final residual = 2.41904e-05, No Iterations 1
DILUPBiCGStab:  Solving for Uy, Initial residual = 0.0108791, Final residual = 4.03005e-05, No Iterations 1
DILUPBiCGStab:  Solving for Uz, Initial residual = 0.00809689, Final residual = 3.21074e-05, No Iterations 1
DICPCG:  Solving for G, Initial residual = 0.000352896, Final residual = 3.32906e-05, No Iterations 19
DILUPBiCGStab:  Solving for h, Initial residual = 0.00291597, Final residual = 1.59571e-06, No Iterations 1
DICPCG:  Solving for p_rgh, Initial residual = 0.009937, Final residual = 9.73311e-05, No Iterations 18
time step continuity errors : sum local = 5.71213e-06, global = -9.44543e-07, cumulative = -0.000203175
ExecutionTime = 4.91 s  ClockTime = 5 s

Time = 41

DILUPBiCGStab:  Solving for Ux, Initial residual = 0.00660538, Final residual = 2.37614e-05, No Iterations 1
DILUPBiCGStab:  Solving for Uy, Initial residual = 0.0106524, Final residual = 3.95299e-05, No Iterations 1
DILUPBiCGStab:  Solving for Uz, Initial residual = 0.00795489, Final residual = 3.14988e-05, No Iterations 1
DICPCG:  Solving for G, Initial residual = 0.000339227, Final residual = 3.09902e-05, No Iterations 19
DILUPBiCGStab:  Solving for h, Initial residual = 0.00283518, Final residual = 1.56534e-06, No Iterations 1
DICPCG:  Solving for p_rgh, Initial residual = 0.00964393, Final residual = 9.41306e-05, No Iterations 20
time step continuity errors : sum local = 5.49507e-06, global = -2.80188e-07, cumulative = -0.000203455
ExecutionTime = 5.01 s  ClockTime = 5 s

Time = 42

DILUPBiCGStab:  Solving for Ux, Initial residual = 0.00647238, Final residual = 2.33569e-05, No Iterations 1
DILUPBiCGStab:  Solving for Uy, Initial residual = 0.0104292, Final residual = 3.87082e-05, No Iterations 1
DILUPBiCGStab:  Solving for Uz, Initial residual = 0.00781994, Final residual = 3.09205e-05, No Iterations 1
DICPCG:  Solving for G, Initial residual = 0.000327069, Final residual = 2.85657e-05, No Iterations 19
DILUPBiCGStab:  Solving for h, Initial residual = 0.00275897, Final residual = 1.53535e-06, No Iterations 1
DICPCG:  Solving for p_rgh, Initial residual = 0.00936223, Final residual = 9.05924e-05, No Iterations 22
time step continuity errors : sum local = 5.26119e-06, global = 5.77812e-07, cumulative = -0.000202878
ExecutionTime = 5.14 s  ClockTime = 6 s

Time = 43

DILUPBiCGStab:  Solving for Ux, Initial residual = 0.00636117, Final residual = 2.3068e-05, No Iterations 1
DILUPBiCGStab:  Solving for Uy, Initial residual = 0.0102119, Final residual = 3.79075e-05, No Iterations 1
DILUPBiCGStab:  Solving for Uz, Initial residual = 0.0076909, Final residual = 3.03728e-05, No Iterations 1
DICPCG:  Solving for G, Initial residual = 0.000315877, Final residual = 2.9491e-05, No Iterations 18
DILUPBiCGStab:  Solving for h, Initial residual = 0.00268707, Final residual = 1.50584e-06, No Iterations 1
DICPCG:  Solving for p_rgh, Initial residual = 0.00910039, Final residual = 8.86805e-05, No Iterations 56
time step continuity errors : sum local = 5.12421e-06, global = 5.83782e-08, cumulative = -0.000202819
ExecutionTime = 5.26 s  ClockTime = 6 s

Time = 44

DILUPBiCGStab:  Solving for Ux, Initial residual = 0.00626941, Final residual = 2.27882e-05, No Iterations 1
DILUPBiCGStab:  Solving for Uy, Initial residual = 0.0100025, Final residual = 3.71287e-05, No Iterations 1
DILUPBiCGStab:  Solving for Uz, Initial residual = 0.00756117, Final residual = 2.98352e-05, No Iterations 1
DICPCG:  Solving for G, Initial residual = 0.000305977, Final residual = 2.98447e-05, No Iterations 17
DILUPBiCGStab:  Solving for h, Initial residual = 0.00261919, Final residual = 1.47685e-06, No Iterations 1
DICPCG:  Solving for p_rgh, Initial residual = 0.00887503, Final residual = 7.25006e-05, No Iterations 19
time step continuity errors : sum local = 4.16802e-06, global = 5.99676e-07, cumulative = -0.00020222
ExecutionTime = 5.38 s  ClockTime = 6 s

Time = 45

DILUPBiCGStab:  Solving for Ux, Initial residual = 0.00615063, Final residual = 2.24841e-05, No Iterations 1
DILUPBiCGStab:  Solving for Uy, Initial residual = 0.0098164, Final residual = 3.64644e-05, No Iterations 1
DILUPBiCGStab:  Solving for Uz, Initial residual = 0.00744807, Final residual = 2.93211e-05, No Iterations 1
DICPCG:  Solving for G, Initial residual = 0.000297332, Final residual = 2.84136e-05, No Iterations 17
DILUPBiCGStab:  Solving for h, Initial residual = 0.00255505, Final residual = 1.44839e-06, No Iterations 1
DICPCG:  Solving for p_rgh, Initial residual = 0.00864269, Final residual = 7.58982e-05, No Iterations 19
time step continuity errors : sum local = 4.34217e-06, global = 1.04613e-06, cumulative = -0.000201173
ExecutionTime = 5.49 s  ClockTime = 6 s

Time = 46

DILUPBiCGStab:  Solving for Ux, Initial residual = 0.0060258, Final residual = 2.20808e-05, No Iterations 1
DILUPBiCGStab:  Solving for Uy, Initial residual = 0.00963413, Final residual = 3.58017e-05, No Iterations 1
DILUPBiCGStab:  Solving for Uz, Initial residual = 0.00733886, Final residual = 2.88219e-05, No Iterations 1
DICPCG:  Solving for G, Initial residual = 0.000287975, Final residual = 2.58083e-05, No Iterations 17
DILUPBiCGStab:  Solving for h, Initial residual = 0.00249436, Final residual = 1.42051e-06, No Iterations 1
DICPCG:  Solving for p_rgh, Initial residual = 0.00841442, Final residual = 7.99202e-05, No Iterations 60
time step continuity errors : sum local = 4.5505e-06, global = 4.94378e-08, cumulative = -0.000201124
ExecutionTime = 5.62 s  ClockTime = 6 s

Time = 47

DILUPBiCGStab:  Solving for Ux, Initial residual = 0.00593883, Final residual = 2.1754e-05, No Iterations 1
DILUPBiCGStab:  Solving for Uy, Initial residual = 0.00944852, Final residual = 3.50995e-05, No Iterations 1
DILUPBiCGStab:  Solving for Uz, Initial residual = 0.00722118, Final residual = 2.83161e-05, No Iterations 1
DICPCG:  Solving for G, Initial residual = 0.000279366, Final residual = 2.77292e-05, No Iterations 16
DILUPBiCGStab:  Solving for h, Initial residual = 0.00243691, Final residual = 1.39322e-06, No Iterations 1
DICPCG:  Solving for p_rgh, Initial residual = 0.00821892, Final residual = 7.79409e-05, No Iterations 18
time step continuity errors : sum local = 4.41647e-06, global = 2.6374e-07, cumulative = -0.00020086
ExecutionTime = 5.72 s  ClockTime = 6 s

Time = 48

DILUPBiCGStab:  Solving for Ux, Initial residual = 0.00584283, Final residual = 2.15265e-05, No Iterations 1
DILUPBiCGStab:  Solving for Uy, Initial residual = 0.00928897, Final residual = 3.45485e-05, No Iterations 1
DILUPBiCGStab:  Solving for Uz, Initial residual = 0.00712484, Final residual = 2.78954e-05, No Iterations 1
DICPCG:  Solving for G, Initial residual = 0.000272421, Final residual = 2.63266e-05, No Iterations 16
DILUPBiCGStab:  Solving for h, Initial residual = 0.00238252, Final residual = 1.36654e-06, No Iterations 1
DICPCG:  Solving for p_rgh, Initial residual = 0.00801727, Final residual = 7.35376e-05, No Iterations 26
time step continuity errors : sum local = 4.14806e-06, global = 3.28428e-07, cumulative = -0.000200532
ExecutionTime = 5.83 s  ClockTime = 6 s

Time = 49

DILUPBiCGStab:  Solving for Ux, Initial residual = 0.00574187, Final residual = 2.12122e-05, No Iterations 1
DILUPBiCGStab:  Solving for Uy, Initial residual = 0.00912882, Final residual = 3.39421e-05, No Iterations 1
DILUPBiCGStab:  Solving for Uz, Initial residual = 0.00702819, Final residual = 2.7467e-05, No Iterations 1
DICPCG:  Solving for G, Initial residual = 0.00026464, Final residual = 2.50011e-05, No Iterations 16
DILUPBiCGStab:  Solving for h, Initial residual = 0.00233101, Final residual = 1.34036e-06, No Iterations 1
DICPCG:  Solving for p_rgh, Initial residual = 0.00781449, Final residual = 7.44427e-05, No Iterations 19
time step continuity errors : sum local = 4.18055e-06, global = 8.71827e-07, cumulative = -0.00019966
ExecutionTime = 5.93 s  ClockTime = 6 s

Time = 50

DILUPBiCGStab:  Solving for Ux, Initial residual = 0.00566789, Final residual = 2.10515e-05, No Iterations 1
DILUPBiCGStab:  Solving for Uy, Initial residual = 0.00896254, Final residual = 3.33657e-05, No Iterations 1
DILUPBiCGStab:  Solving for Uz, Initial residual = 0.00693342, Final residual = 2.70459e-05, No Iterations 1
DICPCG:  Solving for G, Initial residual = 0.000258022, Final residual = 2.39118e-05, No Iterations 16
DILUPBiCGStab:  Solving for h, Initial residual = 0.00228216, Final residual = 1.31501e-06, No Iterations 1
DICPCG:  Solving for p_rgh, Initial residual = 0.0076261, Final residual = 7.62503e-05, No Iterations 57
time step continuity errors : sum local = 4.26362e-06, global = 4.11013e-08, cumulative = -0.000199619
ExecutionTime = 6.07 s  ClockTime = 6 s

Time = 51

DILUPBiCGStab:  Solving for Ux, Initial residual = 0.00558984, Final residual = 2.07428e-05, No Iterations 1
DILUPBiCGStab:  Solving for Uy, Initial residual = 0.00881336, Final residual = 3.27906e-05, No Iterations 1
DILUPBiCGStab:  Solving for Uz, Initial residual = 0.00683324, Final residual = 2.66167e-05, No Iterations 1
DICPCG:  Solving for G, Initial residual = 0.000251963, Final residual = 2.36327e-05, No Iterations 16
DILUPBiCGStab:  Solving for h, Initial residual = 0.00223582, Final residual = 1.29033e-06, No Iterations 1
DICPCG:  Solving for p_rgh, Initial residual = 0.00746614, Final residual = 6.81301e-05, No Iterations 19
time step continuity errors : sum local = 3.79307e-06, global = 3.58592e-07, cumulative = -0.00019926
ExecutionTime = 6.19 s  ClockTime = 7 s

Time = 52

DILUPBiCGStab:  Solving for Ux, Initial residual = 0.00549656, Final residual = 2.04775e-05, No Iterations 1
DILUPBiCGStab:  Solving for Uy, Initial residual = 0.00867141, Final residual = 3.22652e-05, No Iterations 1
DILUPBiCGStab:  Solving for Uz, Initial residual = 0.00675066, Final residual = 2.62474e-05, No Iterations 1
DICPCG:  Solving for G, Initial residual = 0.00024646, Final residual = 2.37178e-05, No Iterations 16
DILUPBiCGStab:  Solving for h, Initial residual = 0.00219179, Final residual = 1.26636e-06, No Iterations 1
DICPCG:  Solving for p_rgh, Initial residual = 0.00729564, Final residual = 7.05897e-05, No Iterations 20
time step continuity errors : sum local = 3.91399e-06, global = 6.03655e-07, cumulative = -0.000198657
ExecutionTime = 6.3 s  ClockTime = 7 s

Time = 53

DILUPBiCGStab:  Solving for Ux, Initial residual = 0.00540443, Final residual = 2.01729e-05, No Iterations 1
DILUPBiCGStab:  Solving for Uy, Initial residual = 0.00853078, Final residual = 3.17379e-05, No Iterations 1
DILUPBiCGStab:  Solving for Uz, Initial residual = 0.00666764, Final residual = 2.58793e-05, No Iterations 1
DICPCG:  Solving for G, Initial residual = 0.000241354, Final residual = 2.04205e-05, No Iterations 17
DILUPBiCGStab:  Solving for h, Initial residual = 0.00214995, Final residual = 1.24307e-06, No Iterations 1
DICPCG:  Solving for p_rgh, Initial residual = 0.00712359, Final residual = 6.7859e-05, No Iterations 30
time step continuity errors : sum local = 3.74774e-06, global = 1.03155e-06, cumulative = -0.000197625
ExecutionTime = 6.41 s  ClockTime = 7 s

Time = 54

DILUPBiCGStab:  Solving for Ux, Initial residual = 0.0053355, Final residual = 1.99686e-05, No Iterations 1
DILUPBiCGStab:  Solving for Uy, Initial residual = 0.0083904, Final residual = 3.11611e-05, No Iterations 1
DILUPBiCGStab:  Solving for Uz, Initial residual = 0.00658605, Final residual = 2.55318e-05, No Iterations 1
DICPCG:  Solving for G, Initial residual = 0.00023673, Final residual = 2.10553e-05, No Iterations 17
DILUPBiCGStab:  Solving for h, Initial residual = 0.00211015, Final residual = 1.22046e-06, No Iterations 1
DICPCG:  Solving for p_rgh, Initial residual = 0.00696976, Final residual = 5.74936e-05, No Iterations 53
time step continuity errors : sum local = 3.16315e-06, global = -2.31781e-08, cumulative = -0.000197648
ExecutionTime = 6.54 s  ClockTime = 7 s

Time = 55

DILUPBiCGStab:  Solving for Ux, Initial residual = 0.00527684, Final residual = 1.97407e-05, No Iterations 1
DILUPBiCGStab:  Solving for Uy, Initial residual = 0.00827498, Final residual = 3.08088e-05, No Iterations 1
DILUPBiCGStab:  Solving for Uz, Initial residual = 0.00649345, Final residual = 2.51418e-05, No Iterations 1
DICPCG:  Solving for G, Initial residual = 0.000232208, Final residual = 2.19073e-05, No Iterations 17
DILUPBiCGStab:  Solving for h, Initial residual = 0.00207224, Final residual = 1.19858e-06, No Iterations 1
DICPCG:  Solving for p_rgh, Initial residual = 0.00684012, Final residual = 6.53358e-05, No Iterations 18
time step continuity errors : sum local = 3.58068e-06, global = 1.6607e-07, cumulative = -0.000197482
ExecutionTime = 6.66 s  ClockTime = 7 s

Time = 56

DILUPBiCGStab:  Solving for Ux, Initial residual = 0.00518692, Final residual = 1.94541e-05, No Iterations 1
DILUPBiCGStab:  Solving for Uy, Initial residual = 0.00813456, Final residual = 3.02803e-05, No Iterations 1
DILUPBiCGStab:  Solving for Uz, Initial residual = 0.00642465, Final residual = 2.48375e-05, No Iterations 1
DICPCG:  Solving for G, Initial residual = 0.0002281, Final residual = 2.0887e-05, No Iterations 18
DILUPBiCGStab:  Solving for h, Initial residual = 0.00203614, Final residual = 1.17741e-06, No Iterations 1
DICPCG:  Solving for p_rgh, Initial residual = 0.00669309, Final residual = 6.67121e-05, No Iterations 26
time step continuity errors : sum local = 3.64293e-06, global = 1.75509e-07, cumulative = -0.000197307
ExecutionTime = 6.76 s  ClockTime = 7 s

Time = 57

DILUPBiCGStab:  Solving for Ux, Initial residual = 0.00509751, Final residual = 1.91356e-05, No Iterations 1
DILUPBiCGStab:  Solving for Uy, Initial residual = 0.00802011, Final residual = 2.97962e-05, No Iterations 1
DILUPBiCGStab:  Solving for Uz, Initial residual = 0.00635255, Final residual = 2.45153e-05, No Iterations 1
DICPCG:  Solving for G, Initial residual = 0.000223608, Final residual = 2.10447e-05, No Iterations 18
DILUPBiCGStab:  Solving for h, Initial residual = 0.00200174, Final residual = 1.15697e-06, No Iterations 1
DICPCG:  Solving for p_rgh, Initial residual = 0.00653722, Final residual = 6.52687e-05, No Iterations 27
time step continuity errors : sum local = 3.55163e-06, global = 5.51986e-07, cumulative = -0.000196755
ExecutionTime = 6.87 s  ClockTime = 7 s

Time = 58

DILUPBiCGStab:  Solving for Ux, Initial residual = 0.00504555, Final residual = 1.902e-05, No Iterations 1
DILUPBiCGStab:  Solving for Uy, Initial residual = 0.00790318, Final residual = 2.93838e-05, No Iterations 1
DILUPBiCGStab:  Solving for Uz, Initial residual = 0.00628075, Final residual = 2.42149e-05, No Iterations 1
DICPCG:  Solving for G, Initial residual = 0.000219607, Final residual = 2.00759e-05, No Iterations 19
DILUPBiCGStab:  Solving for h, Initial residual = 0.00196896, Final residual = 1.13729e-06, No Iterations 1
DICPCG:  Solving for p_rgh, Initial residual = 0.00639535, Final residual = 6.28786e-05, No Iterations 55
time step continuity errors : sum local = 3.40993e-06, global = 2.93788e-09, cumulative = -0.000196752
ExecutionTime = 6.99 s  ClockTime = 7 s

Time = 59

DILUPBiCGStab:  Solving for Ux, Initial residual = 0.00499878, Final residual = 1.88485e-05, No Iterations 1
DILUPBiCGStab:  Solving for Uy, Initial residual = 0.00779512, Final residual = 2.90256e-05, No Iterations 1
DILUPBiCGStab:  Solving for Uz, Initial residual = 0.00620202, Final residual = 2.38961e-05, No Iterations 1
DICPCG:  Solving for G, Initial residual = 0.000216962, Final residual = 2.02524e-05, No Iterations 19
DILUPBiCGStab:  Solving for h, Initial residual = 0.0019377, Final residual = 1.11835e-06, No Iterations 1
DICPCG:  Solving for p_rgh, Initial residual = 0.00628132, Final residual = 5.7671e-05, No Iterations 19
time step continuity errors : sum local = 3.11681e-06, global = 3.96445e-07, cumulative = -0.000196355
ExecutionTime = 7.09 s  ClockTime = 8 s

Time = 60

DILUPBiCGStab:  Solving for Ux, Initial residual = 0.00491643, Final residual = 1.85703e-05, No Iterations 1
DILUPBiCGStab:  Solving for Uy, Initial residual = 0.00767414, Final residual = 2.85434e-05, No Iterations 1
DILUPBiCGStab:  Solving for Uz, Initial residual = 0.00613896, Final residual = 2.36221e-05, No Iterations 1
DICPCG:  Solving for G, Initial residual = 0.000213445, Final residual = 2.10231e-05, No Iterations 19
DILUPBiCGStab:  Solving for h, Initial residual = 0.00190786, Final residual = 1.10014e-06, No Iterations 1
DICPCG:  Solving for p_rgh, Initial residual = 0.00615238, Final residual = 5.65099e-05, No Iterations 28
time step continuity errors : sum local = 3.04421e-06, global = 6.72701e-07, cumulative = -0.000195683
ExecutionTime = 7.22 s  ClockTime = 8 s

Time = 61

DILUPBiCGStab:  Solving for Ux, Initial residual = 0.00483502, Final residual = 1.82699e-05, No Iterations 1
DILUPBiCGStab:  Solving for Uy, Initial residual = 0.00757041, Final residual = 2.80763e-05, No Iterations 1
DILUPBiCGStab:  Solving for Uz, Initial residual = 0.00607437, Final residual = 2.33441e-05, No Iterations 1
DICPCG:  Solving for G, Initial residual = 0.00021038, Final residual = 1.97682e-05, No Iterations 20
DILUPBiCGStab:  Solving for h, Initial residual = 0.00187941, Final residual = 1.08266e-06, No Iterations 1
DICPCG:  Solving for p_rgh, Initial residual = 0.00602283, Final residual = 5.33327e-05, No Iterations 55
time step continuity errors : sum local = 2.86408e-06, global = -6.55812e-09, cumulative = -0.000195689
ExecutionTime = 7.33 s  ClockTime = 8 s

Time = 62

DILUPBiCGStab:  Solving for Ux, Initial residual = 0.00479827, Final residual = 1.81395e-05, No Iterations 1
DILUPBiCGStab:  Solving for Uy, Initial residual = 0.00747943, Final residual = 2.77869e-05, No Iterations 1
DILUPBiCGStab:  Solving for Uz, Initial residual = 0.00600053, Final residual = 2.30455e-05, No Iterations 1
DICPCG:  Solving for G, Initial residual = 0.000207632, Final residual = 2.01081e-05, No Iterations 20
DILUPBiCGStab:  Solving for h, Initial residual = 0.00185227, Final residual = 1.06588e-06, No Iterations 1
DICPCG:  Solving for p_rgh, Initial residual = 0.00591622, Final residual = 5.0558e-05, No Iterations 19
time step continuity errors : sum local = 2.70657e-06, global = 3.08002e-07, cumulative = -0.000195381
ExecutionTime = 7.44 s  ClockTime = 8 s

Time = 63

DILUPBiCGStab:  Solving for Ux, Initial residual = 0.00473139, Final residual = 1.79292e-05, No Iterations 1
DILUPBiCGStab:  Solving for Uy, Initial residual = 0.00736525, Final residual = 2.73724e-05, No Iterations 1
DILUPBiCGStab:  Solving for Uz, Initial residual = 0.00594334, Final residual = 2.28018e-05, No Iterations 1
DICPCG:  Solving for G, Initial residual = 0.000204558, Final residual = 1.68975e-05, No Iterations 21
DILUPBiCGStab:  Solving for h, Initial residual = 0.00182632, Final residual = 1.04979e-06, No Iterations 1
DICPCG:  Solving for p_rgh, Initial residual = 0.00579554, Final residual = 5.21867e-05, No Iterations 28
time step continuity errors : sum local = 2.78568e-06, global = 4.94652e-07, cumulative = -0.000194887
ExecutionTime = 7.55 s  ClockTime = 8 s

Time = 64

DILUPBiCGStab:  Solving for Ux, Initial residual = 0.00466071, Final residual = 1.76756e-05, No Iterations 1
DILUPBiCGStab:  Solving for Uy, Initial residual = 0.00727025, Final residual = 2.69505e-05, No Iterations 1
DILUPBiCGStab:  Solving for Uz, Initial residual = 0.00588398, Final residual = 2.25481e-05, No Iterations 1
DICPCG:  Solving for G, Initial residual = 0.000200553, Final residual = 1.67441e-05, No Iterations 21
DILUPBiCGStab:  Solving for h, Initial residual = 0.00180151, Final residual = 1.03439e-06, No Iterations 1
DICPCG:  Solving for p_rgh, Initial residual = 0.00567954, Final residual = 5.63972e-05, No Iterations 56
time step continuity errors : sum local = 3.00202e-06, global = 2.50432e-08, cumulative = -0.000194861
ExecutionTime = 7.67 s  ClockTime = 8 s

Time = 65

DILUPBiCGStab:  Solving for Ux, Initial residual = 0.00462162, Final residual = 1.7532e-05, No Iterations 1
DILUPBiCGStab:  Solving for Uy, Initial residual = 0.00718214, Final residual = 2.66605e-05, No Iterations 1
DILUPBiCGStab:  Solving for Uz, Initial residual = 0.00581738, Final residual = 2.22808e-05, No Iterations 1
DICPCG:  Solving for G, Initial residual = 0.000197635, Final residual = 1.72913e-05, No Iterations 21
DILUPBiCGStab:  Solving for h, Initial residual = 0.00177779, Final residual = 1.0196e-06, No Iterations 1
DICPCG:  Solving for p_rgh, Initial residual = 0.00558023, Final residual = 4.8805e-05, No Iterations 20
time step continuity errors : sum local = 2.59063e-06, global = 3.90034e-07, cumulative = -0.000194471
ExecutionTime = 7.78 s  ClockTime = 8 s

Time = 66

DILUPBiCGStab:  Solving for Ux, Initial residual = 0.00456111, Final residual = 1.73324e-05, No Iterations 1
DILUPBiCGStab:  Solving for Uy, Initial residual = 0.00708349, Final residual = 2.62835e-05, No Iterations 1
DILUPBiCGStab:  Solving for Uz, Initial residual = 0.00576245, Final residual = 2.20445e-05, No Iterations 1
DICPCG:  Solving for G, Initial residual = 0.000195253, Final residual = 1.75589e-05, No Iterations 21
DILUPBiCGStab:  Solving for h, Initial residual = 0.00175509, Final residual = 1.00543e-06, No Iterations 1
DICPCG:  Solving for p_rgh, Initial residual = 0.00546772, Final residual = 5.01234e-05, No Iterations 29
time step continuity errors : sum local = 2.65368e-06, global = 6.92563e-07, cumulative = -0.000193779
ExecutionTime = 7.89 s  ClockTime = 8 s

Time = 67

DILUPBiCGStab:  Solving for Ux, Initial residual = 0.00449324, Final residual = 1.70793e-05, No Iterations 1
DILUPBiCGStab:  Solving for Uy, Initial residual = 0.00699092, Final residual = 2.58663e-05, No Iterations 1
DILUPBiCGStab:  Solving for Uz, Initial residual = 0.00570753, Final residual = 2.18122e-05, No Iterations 1
DICPCG:  Solving for G, Initial residual = 0.00019294, Final residual = 1.7499e-05, No Iterations 21
DILUPBiCGStab:  Solving for h, Initial residual = 0.00173335, Final residual = 9.91846e-07, No Iterations 1
DICPCG:  Solving for p_rgh, Initial residual = 0.00536524, Final residual = 4.49023e-05, No Iterations 56
time step continuity errors : sum local = 2.37129e-06, global = -5.6001e-09, cumulative = -0.000193784
ExecutionTime = 8 s  ClockTime = 8 s

Time = 68

DILUPBiCGStab:  Solving for Ux, Initial residual = 0.00445858, Final residual = 1.69319e-05, No Iterations 1
DILUPBiCGStab:  Solving for Uy, Initial residual = 0.00691495, Final residual = 2.56107e-05, No Iterations 1
DILUPBiCGStab:  Solving for Uz, Initial residual = 0.00564232, Final residual = 2.15508e-05, No Iterations 1
DICPCG:  Solving for G, Initial residual = 0.000190775, Final residual = 1.78043e-05, No Iterations 21
DILUPBiCGStab:  Solving for h, Initial residual = 0.00171252, Final residual = 9.78851e-07, No Iterations 1
DICPCG:  Solving for p_rgh, Initial residual = 0.00527744, Final residual = 4.70199e-05, No Iterations 19
time step continuity errors : sum local = 2.47677e-06, global = 2.76987e-07, cumulative = -0.000193507
ExecutionTime = 8.11 s  ClockTime = 9 s

Time = 69

DILUPBiCGStab:  Solving for Ux, Initial residual = 0.00440141, Final residual = 1.67433e-05, No Iterations 1
DILUPBiCGStab:  Solving for Uy, Initial residual = 0.00681707, Final residual = 2.52644e-05, No Iterations 1
DILUPBiCGStab:  Solving for Uz, Initial residual = 0.00559395, Final residual = 2.13414e-05, No Iterations 1
DICPCG:  Solving for G, Initial residual = 0.000188735, Final residual = 1.78394e-05, No Iterations 21
DILUPBiCGStab:  Solving for h, Initial residual = 0.00169255, Final residual = 9.6636e-07, No Iterations 1
DICPCG:  Solving for p_rgh, Initial residual = 0.00517236, Final residual = 4.88999e-05, No Iterations 28
time step continuity errors : sum local = 2.56973e-06, global = 4.30082e-07, cumulative = -0.000193077
ExecutionTime = 8.21 s  ClockTime = 9 s

Time = 70

DILUPBiCGStab:  Solving for Ux, Initial residual = 0.00434064, Final residual = 1.65249e-05, No Iterations 1
DILUPBiCGStab:  Solving for Uy, Initial residual = 0.0067354, Final residual = 2.48961e-05, No Iterations 1
DILUPBiCGStab:  Solving for Uz, Initial residual = 0.00554273, Final residual = 2.11241e-05, No Iterations 1
DICPCG:  Solving for G, Initial residual = 0.000186799, Final residual = 1.79199e-05, No Iterations 21
DILUPBiCGStab:  Solving for h, Initial residual = 0.00167341, Final residual = 9.54319e-07, No Iterations 1
DICPCG:  Solving for p_rgh, Initial residual = 0.00507411, Final residual = 4.59107e-05, No Iterations 63
time step continuity errors : sum local = 2.40713e-06, global = 1.75164e-08, cumulative = -0.00019306
ExecutionTime = 8.35 s  ClockTime = 9 s

Time = 71

DILUPBiCGStab:  Solving for Ux, Initial residual = 0.00430871, Final residual = 1.63976e-05, No Iterations 1
DILUPBiCGStab:  Solving for Uy, Initial residual = 0.00665494, Final residual = 2.46071e-05, No Iterations 1
DILUPBiCGStab:  Solving for Uz, Initial residual = 0.00548433, Final residual = 2.08882e-05, No Iterations 1
DICPCG:  Solving for G, Initial residual = 0.000184957, Final residual = 1.80529e-05, No Iterations 21
DILUPBiCGStab:  Solving for h, Initial residual = 0.00165504, Final residual = 9.42734e-07, No Iterations 1
DICPCG:  Solving for p_rgh, Initial residual = 0.00499274, Final residual = 4.52346e-05, No Iterations 19
time step continuity errors : sum local = 2.36621e-06, global = 3.56485e-07, cumulative = -0.000192703
ExecutionTime = 8.45 s  ClockTime = 9 s

Time = 72

DILUPBiCGStab:  Solving for Ux, Initial residual = 0.0042573, Final residual = 1.62181e-05, No Iterations 1
DILUPBiCGStab:  Solving for Uy, Initial residual = 0.00657632, Final residual = 2.4333e-05, No Iterations 1
DILUPBiCGStab:  Solving for Uz, Initial residual = 0.00543739, Final residual = 2.06899e-05, No Iterations 1
DICPCG:  Solving for G, Initial residual = 0.000183231, Final residual = 1.80327e-05, No Iterations 21
DILUPBiCGStab:  Solving for h, Initial residual = 0.00163741, Final residual = 9.31631e-07, No Iterations 1
DICPCG:  Solving for p_rgh, Initial residual = 0.00489764, Final residual = 4.84064e-05, No Iterations 29
time step continuity errors : sum local = 2.52668e-06, global = 6.50593e-07, cumulative = -0.000192053
ExecutionTime = 8.57 s  ClockTime = 9 s

Time = 73

DILUPBiCGStab:  Solving for Ux, Initial residual = 0.00419817, Final residual = 1.59948e-05, No Iterations 1
DILUPBiCGStab:  Solving for Uy, Initial residual = 0.00649895, Final residual = 2.39829e-05, No Iterations 1
DILUPBiCGStab:  Solving for Uz, Initial residual = 0.00538877, Final residual = 2.04824e-05, No Iterations 1
DICPCG:  Solving for G, Initial residual = 0.000181549, Final residual = 1.5267e-05, No Iterations 22
DILUPBiCGStab:  Solving for h, Initial residual = 0.00162051, Final residual = 9.21008e-07, No Iterations 1
DICPCG:  Solving for p_rgh, Initial residual = 0.00481147, Final residual = 4.17665e-05, No Iterations 56
time step continuity errors : sum local = 2.17553e-06, global = -4.55006e-09, cumulative = -0.000192057
ExecutionTime = 8.69 s  ClockTime = 9 s

Time = 74

DILUPBiCGStab:  Solving for Ux, Initial residual = 0.00417011, Final residual = 1.58638e-05, No Iterations 1
DILUPBiCGStab:  Solving for Uy, Initial residual = 0.00643198, Final residual = 2.37519e-05, No Iterations 1
DILUPBiCGStab:  Solving for Uz, Initial residual = 0.00533083, Final residual = 2.02546e-05, No Iterations 1
DICPCG:  Solving for G, Initial residual = 0.00018006, Final residual = 1.51289e-05, No Iterations 22
DILUPBiCGStab:  Solving for h, Initial residual = 0.00160427, Final residual = 9.1082e-07, No Iterations 1
DICPCG:  Solving for p_rgh, Initial residual = 0.00474017, Final residual = 4.60282e-05, No Iterations 19
time step continuity errors : sum local = 2.39235e-06, global = 2.69363e-07, cumulative = -0.000191788
ExecutionTime = 8.8 s  ClockTime = 9 s

Time = 75

DILUPBiCGStab:  Solving for Ux, Initial residual = 0.00412015, Final residual = 1.56893e-05, No Iterations 1
DILUPBiCGStab:  Solving for Uy, Initial residual = 0.00634544, Final residual = 2.34315e-05, No Iterations 1
DILUPBiCGStab:  Solving for Uz, Initial residual = 0.00528916, Final residual = 2.00756e-05, No Iterations 1
DICPCG:  Solving for G, Initial residual = 0.000178347, Final residual = 1.53518e-05, No Iterations 22
DILUPBiCGStab:  Solving for h, Initial residual = 0.00158865, Final residual = 9.0101e-07, No Iterations 1
DICPCG:  Solving for p_rgh, Initial residual = 0.00465115, Final residual = 4.57482e-05, No Iterations 28
time step continuity errors : sum local = 2.3731e-06, global = 4.19429e-07, cumulative = -0.000191369
ExecutionTime = 8.91 s  ClockTime = 9 s

Time = 76

DILUPBiCGStab:  Solving for Ux, Initial residual = 0.0040666, Final residual = 1.54928e-05, No Iterations 1
DILUPBiCGStab:  Solving for Uy, Initial residual = 0.00627577, Final residual = 2.3112e-05, No Iterations 1
DILUPBiCGStab:  Solving for Uz, Initial residual = 0.00524373, Final residual = 1.98924e-05, No Iterations 1
DICPCG:  Solving for G, Initial residual = 0.000176922, Final residual = 1.51196e-05, No Iterations 22
DILUPBiCGStab:  Solving for h, Initial residual = 0.00157364, Final residual = 8.91547e-07, No Iterations 1
DICPCG:  Solving for p_rgh, Initial residual = 0.00456809, Final residual = 4.04263e-05, No Iterations 57
time step continuity errors : sum local = 2.09301e-06, global = 2.15757e-08, cumulative = -0.000191347
ExecutionTime = 9.02 s  ClockTime = 9 s

Time = 77

DILUPBiCGStab:  Solving for Ux, Initial residual = 0.00404033, Final residual = 1.53798e-05, No Iterations 1
DILUPBiCGStab:  Solving for Uy, Initial residual = 0.00621146, Final residual = 2.28967e-05, No Iterations 1
DILUPBiCGStab:  Solving for Uz, Initial residual = 0.0051917, Final residual = 1.96966e-05, No Iterations 1
DICPCG:  Solving for G, Initial residual = 0.000175542, Final residual = 1.53659e-05, No Iterations 22
DILUPBiCGStab:  Solving for h, Initial residual = 0.00155918, Final residual = 8.82436e-07, No Iterations 1
DICPCG:  Solving for p_rgh, Initial residual = 0.00449814, Final residual = 4.19591e-05, No Iterations 20
time step continuity errors : sum local = 2.16812e-06, global = 3.62403e-07, cumulative = -0.000190985
ExecutionTime = 9.13 s  ClockTime = 10 s

Time = 78

DILUPBiCGStab:  Solving for Ux, Initial residual = 0.00399476, Final residual = 1.52137e-05, No Iterations 1
DILUPBiCGStab:  Solving for Uy, Initial residual = 0.00613744, Final residual = 2.26372e-05, No Iterations 1
DILUPBiCGStab:  Solving for Uz, Initial residual = 0.00515029, Final residual = 1.95221e-05, No Iterations 1
DICPCG:  Solving for G, Initial residual = 0.000174279, Final residual = 1.51378e-05, No Iterations 22
DILUPBiCGStab:  Solving for h, Initial residual = 0.00154526, Final residual = 8.73652e-07, No Iterations 1
DICPCG:  Solving for p_rgh, Initial residual = 0.00441611, Final residual = 3.61399e-05, No Iterations 64
time step continuity errors : sum local = 1.86403e-06, global = 1.7658e-08, cumulative = -0.000190967
ExecutionTime = 9.25 s  ClockTime = 10 s

Time = 79

DILUPBiCGStab:  Solving for Ux, Initial residual = 0.00395178, Final residual = 1.5023e-05, No Iterations 1
DILUPBiCGStab:  Solving for Uy, Initial residual = 0.00607145, Final residual = 2.23191e-05, No Iterations 1
DILUPBiCGStab:  Solving for Uz, Initial residual = 0.00510241, Final residual = 1.93322e-05, No Iterations 1
DICPCG:  Solving for G, Initial residual = 0.000172992, Final residual = 1.53664e-05, No Iterations 22
DILUPBiCGStab:  Solving for h, Initial residual = 0.00153187, Final residual = 8.65213e-07, No Iterations 1
DICPCG:  Solving for p_rgh, Initial residual = 0.00435262, Final residual = 3.84511e-05, No Iterations 20
time step continuity errors : sum local = 1.97961e-06, global = 3.46906e-07, cumulative = -0.00019062
ExecutionTime = 9.36 s  ClockTime = 10 s

Time = 80

DILUPBiCGStab:  Solving for Ux, Initial residual = 0.00390718, Final residual = 1.48634e-05, No Iterations 1
DILUPBiCGStab:  Solving for Uy, Initial residual = 0.00600612, Final residual = 2.21013e-05, No Iterations 1
DILUPBiCGStab:  Solving for Uz, Initial residual = 0.00506232, Final residual = 1.91781e-05, No Iterations 1
DICPCG:  Solving for G, Initial residual = 0.000171855, Final residual = 1.51519e-05, No Iterations 22
DILUPBiCGStab:  Solving for h, Initial residual = 0.00151895, Final residual = 8.57175e-07, No Iterations 1
DICPCG:  Solving for p_rgh, Initial residual = 0.00427321, Final residual = 4.19016e-05, No Iterations 61
time step continuity errors : sum local = 2.15356e-06, global = 2.63596e-08, cumulative = -0.000190594
ExecutionTime = 9.51 s  ClockTime = 10 s

Time = 81

DILUPBiCGStab:  Solving for Ux, Initial residual = 0.00387498, Final residual = 1.47357e-05, No Iterations 1
DILUPBiCGStab:  Solving for Uy, Initial residual = 0.00594377, Final residual = 2.18535e-05, No Iterations 1
DILUPBiCGStab:  Solving for Uz, Initial residual = 0.00501589, Final residual = 1.89959e-05, No Iterations 1
DICPCG:  Solving for G, Initial residual = 0.00017067, Final residual = 1.53615e-05, No Iterations 22
DILUPBiCGStab:  Solving for h, Initial residual = 0.00150648, Final residual = 8.49371e-07, No Iterations 1
DICPCG:  Solving for p_rgh, Initial residual = 0.00421566, Final residual = 3.95222e-05, No Iterations 20
time step continuity errors : sum local = 2.02779e-06, global = 3.74555e-07, cumulative = -0.000190219
ExecutionTime = 9.61 s  ClockTime = 10 s

Time = 82

DILUPBiCGStab:  Solving for Ux, Initial residual = 0.00383456, Final residual = 1.45848e-05, No Iterations 1
DILUPBiCGStab:  Solving for Uy, Initial residual = 0.00587978, Final residual = 2.16334e-05, No Iterations 1
DILUPBiCGStab:  Solving for Uz, Initial residual = 0.00497732, Final residual = 1.88294e-05, No Iterations 1
DICPCG:  Solving for G, Initial residual = 0.000169635, Final residual = 1.5157e-05, No Iterations 22
DILUPBiCGStab:  Solving for h, Initial residual = 0.00149444, Final residual = 8.41815e-07, No Iterations 1
DICPCG:  Solving for p_rgh, Initial residual = 0.00413969, Final residual = 3.45083e-05, No Iterations 64
time step continuity errors : sum local = 1.76771e-06, global = 1.454e-08, cumulative = -0.000190205
ExecutionTime = 9.75 s  ClockTime = 10 s

Time = 83

DILUPBiCGStab:  Solving for Ux, Initial residual = 0.00379962, Final residual = 1.44266e-05, No Iterations 1
DILUPBiCGStab:  Solving for Uy, Initial residual = 0.00581918, Final residual = 2.13633e-05, No Iterations 1
DILUPBiCGStab:  Solving for Uz, Initial residual = 0.00493198, Final residual = 1.86476e-05, No Iterations 1
DICPCG:  Solving for G, Initial residual = 0.000168552, Final residual = 1.53473e-05, No Iterations 22
DILUPBiCGStab:  Solving for h, Initial residual = 0.0014828, Final residual = 8.34507e-07, No Iterations 1
DICPCG:  Solving for p_rgh, Initial residual = 0.00408504, Final residual = 3.47024e-05, No Iterations 20
time step continuity errors : sum local = 1.7748e-06, global = 3.46316e-07, cumulative = -0.000189858
ExecutionTime = 9.86 s  ClockTime = 10 s

Time = 84

DILUPBiCGStab:  Solving for Ux, Initial residual = 0.00375824, Final residual = 1.42737e-05, No Iterations 1
DILUPBiCGStab:  Solving for Uy, Initial residual = 0.00575729, Final residual = 2.11731e-05, No Iterations 1
DILUPBiCGStab:  Solving for Uz, Initial residual = 0.00489521, Final residual = 1.84922e-05, No Iterations 1
DICPCG:  Solving for G, Initial residual = 0.000167604, Final residual = 1.51508e-05, No Iterations 22
DILUPBiCGStab:  Solving for h, Initial residual = 0.00147156, Final residual = 8.27463e-07, No Iterations 1
DICPCG:  Solving for p_rgh, Initial residual = 0.004013, Final residual = 3.69217e-05, No Iterations 63
time step continuity errors : sum local = 1.8855e-06, global = 1.79614e-08, cumulative = -0.00018984
ExecutionTime = 10 s  ClockTime = 10 s

Time = 85

DILUPBiCGStab:  Solving for Ux, Initial residual = 0.00372661, Final residual = 1.41368e-05, No Iterations 1
DILUPBiCGStab:  Solving for Uy, Initial residual = 0.00570053, Final residual = 2.09358e-05, No Iterations 1
DILUPBiCGStab:  Solving for Uz, Initial residual = 0.00485208, Final residual = 1.8321e-05, No Iterations 1
DICPCG:  Solving for G, Initial residual = 0.000166607, Final residual = 1.53248e-05, No Iterations 22
DILUPBiCGStab:  Solving for h, Initial residual = 0.0014607, Final residual = 8.2068e-07, No Iterations 1
DICPCG:  Solving for p_rgh, Initial residual = 0.0039607, Final residual = 3.60289e-05, No Iterations 20
time step continuity errors : sum local = 1.83716e-06, global = 3.50872e-07, cumulative = -0.000189489
ExecutionTime = 10.11 s  ClockTime = 11 s

Time = 86

DILUPBiCGStab:  Solving for Ux, Initial residual = 0.00368856, Final residual = 1.39911e-05, No Iterations 1
DILUPBiCGStab:  Solving for Uy, Initial residual = 0.00564141, Final residual = 2.07346e-05, No Iterations 1
DILUPBiCGStab:  Solving for Uz, Initial residual = 0.00481647, Final residual = 1.81703e-05, No Iterations 1
DICPCG:  Solving for G, Initial residual = 0.000165745, Final residual = 1.51337e-05, No Iterations 22
DILUPBiCGStab:  Solving for h, Initial residual = 0.00145021, Final residual = 8.14179e-07, No Iterations 1
DICPCG:  Solving for p_rgh, Initial residual = 0.00389158, Final residual = 3.23469e-05, No Iterations 64
time step continuity errors : sum local = 1.64716e-06, global = 1.39566e-08, cumulative = -0.000189475
ExecutionTime = 10.24 s  ClockTime = 11 s

Time = 87

DILUPBiCGStab:  Solving for Ux, Initial residual = 0.00365813, Final residual = 1.38483e-05, No Iterations 1
DILUPBiCGStab:  Solving for Uy, Initial residual = 0.00558591, Final residual = 2.04855e-05, No Iterations 1
DILUPBiCGStab:  Solving for Uz, Initial residual = 0.00477429, Final residual = 1.80053e-05, No Iterations 1
DICPCG:  Solving for G, Initial residual = 0.000164835, Final residual = 1.52952e-05, No Iterations 22
DILUPBiCGStab:  Solving for h, Initial residual = 0.00144007, Final residual = 8.07803e-07, No Iterations 1
DICPCG:  Solving for p_rgh, Initial residual = 0.00384321, Final residual = 3.38881e-05, No Iterations 20
time step continuity errors : sum local = 1.72326e-06, global = 3.46909e-07, cumulative = -0.000189129
ExecutionTime = 10.35 s  ClockTime = 11 s

Time = 88

DILUPBiCGStab:  Solving for Ux, Initial residual = 0.0036206, Final residual = 1.37008e-05, No Iterations 1
DILUPBiCGStab:  Solving for Uy, Initial residual = 0.00552826, Final residual = 2.03073e-05, No Iterations 1
DILUPBiCGStab:  Solving for Uz, Initial residual = 0.00474, Final residual = 1.78626e-05, No Iterations 1
DICPCG:  Solving for G, Initial residual = 0.000164054, Final residual = 1.51073e-05, No Iterations 22
DILUPBiCGStab:  Solving for h, Initial residual = 0.00143026, Final residual = 8.01631e-07, No Iterations 1
DICPCG:  Solving for p_rgh, Initial residual = 0.00377738, Final residual = 3.03106e-05, No Iterations 64
time step continuity errors : sum local = 1.53938e-06, global = 1.21862e-08, cumulative = -0.000189116
ExecutionTime = 10.47 s  ClockTime = 11 s

Time = 89

DILUPBiCGStab:  Solving for Ux, Initial residual = 0.00359173, Final residual = 1.35666e-05, No Iterations 1
DILUPBiCGStab:  Solving for Uy, Initial residual = 0.00547605, Final residual = 2.00843e-05, No Iterations 1
DILUPBiCGStab:  Solving for Uz, Initial residual = 0.00469948, Final residual = 1.77032e-05, No Iterations 1
DICPCG:  Solving for G, Initial residual = 0.000163224, Final residual = 1.52608e-05, No Iterations 22
DILUPBiCGStab:  Solving for h, Initial residual = 0.00142076, Final residual = 7.95689e-07, No Iterations 1
DICPCG:  Solving for p_rgh, Initial residual = 0.00373158, Final residual = 3.36089e-05, No Iterations 20
time step continuity errors : sum local = 1.70472e-06, global = 3.40517e-07, cumulative = -0.000188776
ExecutionTime = 10.58 s  ClockTime = 11 s

Time = 90

DILUPBiCGStab:  Solving for Ux, Initial residual = 0.00355644, Final residual = 1.34287e-05, No Iterations 1
DILUPBiCGStab:  Solving for Uy, Initial residual = 0.00542049, Final residual = 1.99047e-05, No Iterations 1
DILUPBiCGStab:  Solving for Uz, Initial residual = 0.00466633, Final residual = 1.75645e-05, No Iterations 1
DICPCG:  Solving for G, Initial residual = 0.000162507, Final residual = 1.50739e-05, No Iterations 22
DILUPBiCGStab:  Solving for h, Initial residual = 0.00141155, Final residual = 7.89957e-07, No Iterations 1
DICPCG:  Solving for p_rgh, Initial residual = 0.00366893, Final residual = 3.03847e-05, No Iterations 64
time step continuity errors : sum local = 1.53941e-06, global = 1.24287e-08, cumulative = -0.000188763
ExecutionTime = 10.72 s  ClockTime = 11 s

Time = 91

DILUPBiCGStab:  Solving for Ux, Initial residual = 0.00352917, Final residual = 1.33007e-05, No Iterations 1
DILUPBiCGStab:  Solving for Uy, Initial residual = 0.00536975, Final residual = 1.9677e-05, No Iterations 1
DILUPBiCGStab:  Solving for Uz, Initial residual = 0.00462724, Final residual = 1.74117e-05, No Iterations 1
DICPCG:  Solving for G, Initial residual = 0.000161748, Final residual = 1.52221e-05, No Iterations 22
DILUPBiCGStab:  Solving for h, Initial residual = 0.00140262, Final residual = 7.84425e-07, No Iterations 1
DICPCG:  Solving for p_rgh, Initial residual = 0.0036256, Final residual = 3.2988e-05, No Iterations 20
time step continuity errors : sum local = 1.66937e-06, global = 3.40902e-07, cumulative = -0.000188423
ExecutionTime = 10.82 s  ClockTime = 11 s

Time = 92

DILUPBiCGStab:  Solving for Ux, Initial residual = 0.00349507, Final residual = 1.31646e-05, No Iterations 1
DILUPBiCGStab:  Solving for Uy, Initial residual = 0.00531602, Final residual = 1.94992e-05, No Iterations 1
DILUPBiCGStab:  Solving for Uz, Initial residual = 0.00459503, Final residual = 1.72748e-05, No Iterations 1
DICPCG:  Solving for G, Initial residual = 0.000161089, Final residual = 1.50355e-05, No Iterations 22
DILUPBiCGStab:  Solving for h, Initial residual = 0.00139393, Final residual = 7.791e-07, No Iterations 1
DICPCG:  Solving for p_rgh, Initial residual = 0.00356465, Final residual = 2.99377e-05, No Iterations 64
time step continuity errors : sum local = 1.51343e-06, global = 1.13947e-08, cumulative = -0.000188411
ExecutionTime = 10.96 s  ClockTime = 11 s

Time = 93

DILUPBiCGStab:  Solving for Ux, Initial residual = 0.00346909, Final residual = 1.30404e-05, No Iterations 1
DILUPBiCGStab:  Solving for Uy, Initial residual = 0.00526764, Final residual = 1.92862e-05, No Iterations 1
DILUPBiCGStab:  Solving for Uz, Initial residual = 0.00455688, Final residual = 1.71235e-05, No Iterations 1
DICPCG:  Solving for G, Initial residual = 0.000160387, Final residual = 1.51793e-05, No Iterations 22
DILUPBiCGStab:  Solving for h, Initial residual = 0.0013855, Final residual = 7.73864e-07, No Iterations 1
DICPCG:  Solving for p_rgh, Initial residual = 0.00352274, Final residual = 3.20894e-05, No Iterations 20
time step continuity errors : sum local = 1.62047e-06, global = 3.36613e-07, cumulative = -0.000188075
ExecutionTime = 11.07 s  ClockTime = 12 s

Time = 94

DILUPBiCGStab:  Solving for Ux, Initial residual = 0.00343625, Final residual = 1.29105e-05, No Iterations 1
DILUPBiCGStab:  Solving for Uy, Initial residual = 0.00521565, Final residual = 1.9127e-05, No Iterations 1
DILUPBiCGStab:  Solving for Uz, Initial residual = 0.00452557, Final residual = 1.69913e-05, No Iterations 1
DICPCG:  Solving for G, Initial residual = 0.000159776, Final residual = 1.49944e-05, No Iterations 22
DILUPBiCGStab:  Solving for h, Initial residual = 0.00137731, Final residual = 7.68841e-07, No Iterations 1
DICPCG:  Solving for p_rgh, Initial residual = 0.00346365, Final residual = 2.91449e-05, No Iterations 64
time step continuity errors : sum local = 1.47038e-06, global = 1.10101e-08, cumulative = -0.000188063
ExecutionTime = 11.2 s  ClockTime = 12 s

Time = 95

DILUPBiCGStab:  Solving for Ux, Initial residual = 0.0034115, Final residual = 1.27908e-05, No Iterations 1
DILUPBiCGStab:  Solving for Uy, Initial residual = 0.00516902, Final residual = 1.89241e-05, No Iterations 1
DILUPBiCGStab:  Solving for Uz, Initial residual = 0.00448855, Final residual = 1.68468e-05, No Iterations 1
DICPCG:  Solving for G, Initial residual = 0.000159127, Final residual = 1.51336e-05, No Iterations 22
DILUPBiCGStab:  Solving for h, Initial residual = 0.00136935, Final residual = 7.64037e-07, No Iterations 1
DICPCG:  Solving for p_rgh, Initial residual = 0.00342379, Final residual = 3.17855e-05, No Iterations 20
time step continuity errors : sum local = 1.60203e-06, global = 3.34599e-07, cumulative = -0.000187729
ExecutionTime = 11.31 s  ClockTime = 12 s

Time = 96

DILUPBiCGStab:  Solving for Ux, Initial residual = 0.00337957, Final residual = 1.26635e-05, No Iterations 1
DILUPBiCGStab:  Solving for Uy, Initial residual = 0.00511871, Final residual = 1.87654e-05, No Iterations 1
DILUPBiCGStab:  Solving for Uz, Initial residual = 0.00445807, Final residual = 1.67182e-05, No Iterations 1
DICPCG:  Solving for G, Initial residual = 0.00015856, Final residual = 1.49495e-05, No Iterations 22
DILUPBiCGStab:  Solving for h, Initial residual = 0.00136159, Final residual = 7.59421e-07, No Iterations 1
DICPCG:  Solving for p_rgh, Initial residual = 0.0033666, Final residual = 2.89443e-05, No Iterations 64
time step continuity errors : sum local = 1.45755e-06, global = 1.04074e-08, cumulative = -0.000187718
ExecutionTime = 11.42 s  ClockTime = 12 s

Time = 97

DILUPBiCGStab:  Solving for Ux, Initial residual = 0.00335563, Final residual = 1.25463e-05, No Iterations 1
DILUPBiCGStab:  Solving for Uy, Initial residual = 0.00507383, Final residual = 1.85641e-05, No Iterations 1
DILUPBiCGStab:  Solving for Uz, Initial residual = 0.00442201, Final residual = 1.65779e-05, No Iterations 1
DICPCG:  Solving for G, Initial residual = 0.000157951, Final residual = 1.50856e-05, No Iterations 22
DILUPBiCGStab:  Solving for h, Initial residual = 0.00135406, Final residual = 7.54975e-07, No Iterations 1
[...]
DICPCG:  Solving for G, Initial residual = 7.18729e-05, Final residual = 7.01822e-06, No Iterations 23
DILUPBiCGStab:  Solving for h, Initial residual = 0.000320716, Final residual = 2.0207e-07, No Iterations 1
DICPCG:  Solving for p_rgh, Initial residual = 4.99838e-05, Final residual = 9.57545e-07, No Iterations 63
time step continuity errors : sum local = 7.11097e-08, global = 2.96981e-10, cumulative = -0.000168378
ExecutionTime = 639.02 s  ClockTime = 644 s

Time = 4977

DILUPBiCGStab:  Solving for Ux, Initial residual = 4.12389e-05, Final residual = 1.48237e-07, No Iterations 1
DILUPBiCGStab:  Solving for Uy, Initial residual = 2.74203e-05, Final residual = 1.03987e-07, No Iterations 1
DILUPBiCGStab:  Solving for Uz, Initial residual = 2.61829e-05, Final residual = 8.45731e-08, No Iterations 1
DICPCG:  Solving for G, Initial residual = 7.18609e-05, Final residual = 7.04957e-06, No Iterations 23
DILUPBiCGStab:  Solving for h, Initial residual = 0.00032068, Final residual = 2.02047e-07, No Iterations 1
DICPCG:  Solving for p_rgh, Initial residual = 4.9971e-05, Final residual = 8.78931e-07, No Iterations 64
time step continuity errors : sum local = 6.52732e-08, global = 1.95949e-10, cumulative = -0.000168378
ExecutionTime = 639.16 s  ClockTime = 644 s

Time = 4978

DILUPBiCGStab:  Solving for Ux, Initial residual = 4.12237e-05, Final residual = 1.48183e-07, No Iterations 1
DILUPBiCGStab:  Solving for Uy, Initial residual = 2.7412e-05, Final residual = 1.03962e-07, No Iterations 1
DILUPBiCGStab:  Solving for Uz, Initial residual = 2.61778e-05, Final residual = 8.45498e-08, No Iterations 1
DICPCG:  Solving for G, Initial residual = 7.18594e-05, Final residual = 7.01691e-06, No Iterations 23
DILUPBiCGStab:  Solving for h, Initial residual = 0.000320644, Final residual = 2.02024e-07, No Iterations 1
DICPCG:  Solving for p_rgh, Initial residual = 4.99673e-05, Final residual = 9.55368e-07, No Iterations 63
time step continuity errors : sum local = 7.09515e-08, global = 2.96239e-10, cumulative = -0.000168377
ExecutionTime = 639.28 s  ClockTime = 644 s

Time = 4979

DILUPBiCGStab:  Solving for Ux, Initial residual = 4.12184e-05, Final residual = 1.48164e-07, No Iterations 1
DILUPBiCGStab:  Solving for Uy, Initial residual = 2.74106e-05, Final residual = 1.03945e-07, No Iterations 1
DILUPBiCGStab:  Solving for Uz, Initial residual = 2.61728e-05, Final residual = 8.45398e-08, No Iterations 1
DICPCG:  Solving for G, Initial residual = 7.18474e-05, Final residual = 7.04825e-06, No Iterations 23
DILUPBiCGStab:  Solving for h, Initial residual = 0.000320608, Final residual = 2.02001e-07, No Iterations 1
DICPCG:  Solving for p_rgh, Initial residual = 4.99545e-05, Final residual = 8.76011e-07, No Iterations 64
time step continuity errors : sum local = 6.50595e-08, global = 1.95332e-10, cumulative = -0.000168377
ExecutionTime = 639.41 s  ClockTime = 645 s

Time = 4980

DILUPBiCGStab:  Solving for Ux, Initial residual = 4.12033e-05, Final residual = 1.4811e-07, No Iterations 1
DILUPBiCGStab:  Solving for Uy, Initial residual = 2.74023e-05, Final residual = 1.03923e-07, No Iterations 1
DILUPBiCGStab:  Solving for Uz, Initial residual = 2.61676e-05, Final residual = 8.4516e-08, No Iterations 1
DICPCG:  Solving for G, Initial residual = 7.18459e-05, Final residual = 7.01559e-06, No Iterations 23
DILUPBiCGStab:  Solving for h, Initial residual = 0.000320571, Final residual = 2.01978e-07, No Iterations 1
DICPCG:  Solving for p_rgh, Initial residual = 4.99502e-05, Final residual = 9.57185e-07, No Iterations 63
time step continuity errors : sum local = 7.10898e-08, global = 2.96916e-10, cumulative = -0.000168377
ExecutionTime = 639.55 s  ClockTime = 645 s

Time = 4981

DILUPBiCGStab:  Solving for Ux, Initial residual = 4.11981e-05, Final residual = 1.48091e-07, No Iterations 1
DILUPBiCGStab:  Solving for Uy, Initial residual = 2.7401e-05, Final residual = 1.03907e-07, No Iterations 1
DILUPBiCGStab:  Solving for Uz, Initial residual = 2.61627e-05, Final residual = 8.4505e-08, No Iterations 1
DICPCG:  Solving for G, Initial residual = 7.18339e-05, Final residual = 7.04694e-06, No Iterations 23
DILUPBiCGStab:  Solving for h, Initial residual = 0.000320535, Final residual = 2.01955e-07, No Iterations 1
DICPCG:  Solving for p_rgh, Initial residual = 4.9937e-05, Final residual = 8.78632e-07, No Iterations 64
time step continuity errors : sum local = 6.52573e-08, global = 1.95926e-10, cumulative = -0.000168377
ExecutionTime = 639.69 s  ClockTime = 645 s

Time = 4982

DILUPBiCGStab:  Solving for Ux, Initial residual = 4.11829e-05, Final residual = 1.48038e-07, No Iterations 1
DILUPBiCGStab:  Solving for Uy, Initial residual = 2.73927e-05, Final residual = 1.03882e-07, No Iterations 1
DILUPBiCGStab:  Solving for Uz, Initial residual = 2.61575e-05, Final residual = 8.44817e-08, No Iterations 1
DICPCG:  Solving for G, Initial residual = 7.18324e-05, Final residual = 7.01428e-06, No Iterations 23
DILUPBiCGStab:  Solving for h, Initial residual = 0.000320499, Final residual = 2.01932e-07, No Iterations 1
DICPCG:  Solving for p_rgh, Initial residual = 4.99333e-05, Final residual = 9.55044e-07, No Iterations 63
time step continuity errors : sum local = 7.09343e-08, global = 2.96168e-10, cumulative = -0.000168376
ExecutionTime = 639.81 s  ClockTime = 645 s

Time = 4983

DILUPBiCGStab:  Solving for Ux, Initial residual = 4.11776e-05, Final residual = 1.48019e-07, No Iterations 1
DILUPBiCGStab:  Solving for Uy, Initial residual = 2.73912e-05, Final residual = 1.03865e-07, No Iterations 1
DILUPBiCGStab:  Solving for Uz, Initial residual = 2.61525e-05, Final residual = 8.44717e-08, No Iterations 1
DICPCG:  Solving for G, Initial residual = 7.18204e-05, Final residual = 7.04562e-06, No Iterations 23
DILUPBiCGStab:  Solving for h, Initial residual = 0.000320463, Final residual = 2.01909e-07, No Iterations 1
DICPCG:  Solving for p_rgh, Initial residual = 4.99201e-05, Final residual = 8.75658e-07, No Iterations 64
time step continuity errors : sum local = 6.50396e-08, global = 1.95304e-10, cumulative = -0.000168376
ExecutionTime = 639.94 s  ClockTime = 645 s

Time = 4984

DILUPBiCGStab:  Solving for Ux, Initial residual = 4.11624e-05, Final residual = 1.47965e-07, No Iterations 1
DILUPBiCGStab:  Solving for Uy, Initial residual = 2.73829e-05, Final residual = 1.03842e-07, No Iterations 1
DILUPBiCGStab:  Solving for Uz, Initial residual = 2.61473e-05, Final residual = 8.44477e-08, No Iterations 1
DICPCG:  Solving for G, Initial residual = 7.18189e-05, Final residual = 7.01297e-06, No Iterations 23
DILUPBiCGStab:  Solving for h, Initial residual = 0.000320426, Final residual = 2.01886e-07, No Iterations 1
DICPCG:  Solving for p_rgh, Initial residual = 4.99164e-05, Final residual = 9.56869e-07, No Iterations 63
time step continuity errors : sum local = 7.10733e-08, global = 2.96858e-10, cumulative = -0.000168376
ExecutionTime = 640.08 s  ClockTime = 645 s

Time = 4985

DILUPBiCGStab:  Solving for Ux, Initial residual = 4.11573e-05, Final residual = 1.47946e-07, No Iterations 1
DILUPBiCGStab:  Solving for Uy, Initial residual = 2.73815e-05, Final residual = 1.03827e-07, No Iterations 1
DILUPBiCGStab:  Solving for Uz, Initial residual = 2.61424e-05, Final residual = 8.44368e-08, No Iterations 1
DICPCG:  Solving for G, Initial residual = 7.18069e-05, Final residual = 7.0443e-06, No Iterations 23
DILUPBiCGStab:  Solving for h, Initial residual = 0.00032039, Final residual = 2.01863e-07, No Iterations 1
DICPCG:  Solving for p_rgh, Initial residual = 4.99036e-05, Final residual = 8.78287e-07, No Iterations 64
time step continuity errors : sum local = 6.5238e-08, global = 1.95889e-10, cumulative = -0.000168376
ExecutionTime = 640.2 s  ClockTime = 645 s

Time = 4986

DILUPBiCGStab:  Solving for Ux, Initial residual = 4.11421e-05, Final residual = 1.47893e-07, No Iterations 1
DILUPBiCGStab:  Solving for Uy, Initial residual = 2.73732e-05, Final residual = 1.03802e-07, No Iterations 1
DILUPBiCGStab:  Solving for Uz, Initial residual = 2.61372e-05, Final residual = 8.44135e-08, No Iterations 1
DICPCG:  Solving for G, Initial residual = 7.18053e-05, Final residual = 7.01166e-06, No Iterations 23
DILUPBiCGStab:  Solving for h, Initial residual = 0.000320354, Final residual = 2.0184e-07, No Iterations 1
DICPCG:  Solving for p_rgh, Initial residual = 4.99001e-05, Final residual = 9.54704e-07, No Iterations 63
time step continuity errors : sum local = 7.09159e-08, global = 2.96112e-10, cumulative = -0.000168375
ExecutionTime = 640.34 s  ClockTime = 645 s

Time = 4987

DILUPBiCGStab:  Solving for Ux, Initial residual = 4.11368e-05, Final residual = 1.47874e-07, No Iterations 1
DILUPBiCGStab:  Solving for Uy, Initial residual = 2.73718e-05, Final residual = 1.03786e-07, No Iterations 1
DILUPBiCGStab:  Solving for Uz, Initial residual = 2.61322e-05, Final residual = 8.44035e-08, No Iterations 1
DICPCG:  Solving for G, Initial residual = 7.17934e-05, Final residual = 7.04299e-06, No Iterations 23
DILUPBiCGStab:  Solving for h, Initial residual = 0.000320318, Final residual = 2.01817e-07, No Iterations 1
DICPCG:  Solving for p_rgh, Initial residual = 4.98872e-05, Final residual = 8.75358e-07, No Iterations 64
time step continuity errors : sum local = 6.50236e-08, global = 1.95275e-10, cumulative = -0.000168375
ExecutionTime = 640.47 s  ClockTime = 646 s

Time = 4988

DILUPBiCGStab:  Solving for Ux, Initial residual = 4.11216e-05, Final residual = 1.47819e-07, No Iterations 1
DILUPBiCGStab:  Solving for Uy, Initial residual = 2.73635e-05, Final residual = 1.03763e-07, No Iterations 1
DILUPBiCGStab:  Solving for Uz, Initial residual = 2.61271e-05, Final residual = 8.43795e-08, No Iterations 1
DICPCG:  Solving for G, Initial residual = 7.17918e-05, Final residual = 7.01035e-06, No Iterations 23
DILUPBiCGStab:  Solving for h, Initial residual = 0.000320281, Final residual = 2.01794e-07, No Iterations 1
DICPCG:  Solving for p_rgh, Initial residual = 4.98833e-05, Final residual = 9.56524e-07, No Iterations 63
time step continuity errors : sum local = 7.10545e-08, global = 2.96796e-10, cumulative = -0.000168375
ExecutionTime = 640.59 s  ClockTime = 646 s

Time = 4989

DILUPBiCGStab:  Solving for Ux, Initial residual = 4.11165e-05, Final residual = 1.47801e-07, No Iterations 1
DILUPBiCGStab:  Solving for Uy, Initial residual = 2.73621e-05, Final residual = 1.03747e-07, No Iterations 1
DILUPBiCGStab:  Solving for Uz, Initial residual = 2.61221e-05, Final residual = 8.43683e-08, No Iterations 1
DICPCG:  Solving for G, Initial residual = 7.17799e-05, Final residual = 7.04167e-06, No Iterations 23
DILUPBiCGStab:  Solving for h, Initial residual = 0.000320245, Final residual = 2.0177e-07, No Iterations 1
DICPCG:  Solving for p_rgh, Initial residual = 4.98698e-05, Final residual = 8.77983e-07, No Iterations 64
time step continuity errors : sum local = 6.52217e-08, global = 1.95854e-10, cumulative = -0.000168375
ExecutionTime = 640.71 s  ClockTime = 646 s

Time = 4990

DILUPBiCGStab:  Solving for Ux, Initial residual = 4.11013e-05, Final residual = 1.47748e-07, No Iterations 1
DILUPBiCGStab:  Solving for Uy, Initial residual = 2.73538e-05, Final residual = 1.03723e-07, No Iterations 1
DILUPBiCGStab:  Solving for Uz, Initial residual = 2.61169e-05, Final residual = 8.43447e-08, No Iterations 1
DICPCG:  Solving for G, Initial residual = 7.17783e-05, Final residual = 7.00904e-06, No Iterations 23
DILUPBiCGStab:  Solving for h, Initial residual = 0.000320209, Final residual = 2.01747e-07, No Iterations 1
DICPCG:  Solving for p_rgh, Initial residual = 4.98647e-05, Final residual = 9.54393e-07, No Iterations 63
time step continuity errors : sum local = 7.08996e-08, global = 2.96092e-10, cumulative = -0.000168374
ExecutionTime = 640.85 s  ClockTime = 646 s

Time = 4991

DILUPBiCGStab:  Solving for Ux, Initial residual = 4.1096e-05, Final residual = 1.47729e-07, No Iterations 1
DILUPBiCGStab:  Solving for Uy, Initial residual = 2.73524e-05, Final residual = 1.03706e-07, No Iterations 1
DILUPBiCGStab:  Solving for Uz, Initial residual = 2.6112e-05, Final residual = 8.43346e-08, No Iterations 1
DICPCG:  Solving for G, Initial residual = 7.17664e-05, Final residual = 7.04035e-06, No Iterations 23
DILUPBiCGStab:  Solving for h, Initial residual = 0.000320173, Final residual = 2.01724e-07, No Iterations 1
DICPCG:  Solving for p_rgh, Initial residual = 4.98499e-05, Final residual = 8.74985e-07, No Iterations 64
time step continuity errors : sum local = 6.50022e-08, global = 1.95187e-10, cumulative = -0.000168374
ExecutionTime = 640.97 s  ClockTime = 646 s

Time = 4992

DILUPBiCGStab:  Solving for Ux, Initial residual = 4.10809e-05, Final residual = 1.47674e-07, No Iterations 1
DILUPBiCGStab:  Solving for Uy, Initial residual = 2.73441e-05, Final residual = 1.03684e-07, No Iterations 1
DILUPBiCGStab:  Solving for Uz, Initial residual = 2.61068e-05, Final residual = 8.43106e-08, No Iterations 1
DICPCG:  Solving for G, Initial residual = 7.17648e-05, Final residual = 7.00773e-06, No Iterations 23
DILUPBiCGStab:  Solving for h, Initial residual = 0.000320136, Final residual = 2.01701e-07, No Iterations 1
DICPCG:  Solving for p_rgh, Initial residual = 4.9845e-05, Final residual = 9.56203e-07, No Iterations 63
time step continuity errors : sum local = 7.10376e-08, global = 2.96865e-10, cumulative = -0.000168374
ExecutionTime = 641.11 s  ClockTime = 646 s

Time = 4993

DILUPBiCGStab:  Solving for Ux, Initial residual = 4.10758e-05, Final residual = 1.47656e-07, No Iterations 1
DILUPBiCGStab:  Solving for Uy, Initial residual = 2.73427e-05, Final residual = 1.03668e-07, No Iterations 1
DILUPBiCGStab:  Solving for Uz, Initial residual = 2.61018e-05, Final residual = 8.42996e-08, No Iterations 1
DICPCG:  Solving for G, Initial residual = 7.17529e-05, Final residual = 7.03903e-06, No Iterations 23
DILUPBiCGStab:  Solving for h, Initial residual = 0.0003201, Final residual = 2.01678e-07, No Iterations 1
DICPCG:  Solving for p_rgh, Initial residual = 4.9831e-05, Final residual = 8.77591e-07, No Iterations 64
time step continuity errors : sum local = 6.51989e-08, global = 1.95725e-10, cumulative = -0.000168374
ExecutionTime = 641.22 s  ClockTime = 646 s

Time = 4994

DILUPBiCGStab:  Solving for Ux, Initial residual = 4.10606e-05, Final residual = 1.47603e-07, No Iterations 1
DILUPBiCGStab:  Solving for Uy, Initial residual = 2.73344e-05, Final residual = 1.03644e-07, No Iterations 1
DILUPBiCGStab:  Solving for Uz, Initial residual = 2.60966e-05, Final residual = 8.42762e-08, No Iterations 1
DICPCG:  Solving for G, Initial residual = 7.17513e-05, Final residual = 7.00641e-06, No Iterations 23
DILUPBiCGStab:  Solving for h, Initial residual = 0.000320064, Final residual = 2.01655e-07, No Iterations 1
DICPCG:  Solving for p_rgh, Initial residual = 4.98269e-05, Final residual = 9.54021e-07, No Iterations 63
time step continuity errors : sum local = 7.08789e-08, global = 2.96176e-10, cumulative = -0.000168373
ExecutionTime = 641.35 s  ClockTime = 646 s

Time = 4995

DILUPBiCGStab:  Solving for Ux, Initial residual = 4.10553e-05, Final residual = 1.47584e-07, No Iterations 1
DILUPBiCGStab:  Solving for Uy, Initial residual = 2.7333e-05, Final residual = 1.03627e-07, No Iterations 1
DILUPBiCGStab:  Solving for Uz, Initial residual = 2.60917e-05, Final residual = 8.42661e-08, No Iterations 1
DICPCG:  Solving for G, Initial residual = 7.17394e-05, Final residual = 7.03771e-06, No Iterations 23
DILUPBiCGStab:  Solving for h, Initial residual = 0.000320028, Final residual = 2.01632e-07, No Iterations 1
DICPCG:  Solving for p_rgh, Initial residual = 4.98134e-05, Final residual = 8.74637e-07, No Iterations 64
time step continuity errors : sum local = 6.49826e-08, global = 1.95078e-10, cumulative = -0.000168373
ExecutionTime = 641.48 s  ClockTime = 647 s

Time = 4996

DILUPBiCGStab:  Solving for Ux, Initial residual = 4.10402e-05, Final residual = 1.47529e-07, No Iterations 1
DILUPBiCGStab:  Solving for Uy, Initial residual = 2.73247e-05, Final residual = 1.03605e-07, No Iterations 1
DILUPBiCGStab:  Solving for Uz, Initial residual = 2.60865e-05, Final residual = 8.42422e-08, No Iterations 1
DICPCG:  Solving for G, Initial residual = 7.17379e-05, Final residual = 7.0051e-06, No Iterations 23
DILUPBiCGStab:  Solving for h, Initial residual = 0.000319992, Final residual = 2.01609e-07, No Iterations 1
DICPCG:  Solving for p_rgh, Initial residual = 4.98085e-05, Final residual = 9.55824e-07, No Iterations 63
time step continuity errors : sum local = 7.10162e-08, global = 2.96895e-10, cumulative = -0.000168373
ExecutionTime = 641.61 s  ClockTime = 647 s

Time = 4997

DILUPBiCGStab:  Solving for Ux, Initial residual = 4.10351e-05, Final residual = 1.4751e-07, No Iterations 1
DILUPBiCGStab:  Solving for Uy, Initial residual = 2.73233e-05, Final residual = 1.03589e-07, No Iterations 1
DILUPBiCGStab:  Solving for Uz, Initial residual = 2.60815e-05, Final residual = 8.42312e-08, No Iterations 1
DICPCG:  Solving for G, Initial residual = 7.17259e-05, Final residual = 7.03639e-06, No Iterations 23
DILUPBiCGStab:  Solving for h, Initial residual = 0.000319955, Final residual = 2.01586e-07, No Iterations 1
DICPCG:  Solving for p_rgh, Initial residual = 4.97946e-05, Final residual = 8.77272e-07, No Iterations 64
time step continuity errors : sum local = 6.51815e-08, global = 1.9565e-10, cumulative = -0.000168373
ExecutionTime = 641.74 s  ClockTime = 647 s

Time = 4998

DILUPBiCGStab:  Solving for Ux, Initial residual = 4.10199e-05, Final residual = 1.47456e-07, No Iterations 1
DILUPBiCGStab:  Solving for Uy, Initial residual = 2.7315e-05, Final residual = 1.03564e-07, No Iterations 1
DILUPBiCGStab:  Solving for Uz, Initial residual = 2.60764e-05, Final residual = 8.42078e-08, No Iterations 1
DICPCG:  Solving for G, Initial residual = 7.17244e-05, Final residual = 7.00379e-06, No Iterations 23
DILUPBiCGStab:  Solving for h, Initial residual = 0.000319919, Final residual = 2.01563e-07, No Iterations 1
DICPCG:  Solving for p_rgh, Initial residual = 4.97906e-05, Final residual = 9.53676e-07, No Iterations 63
time step continuity errors : sum local = 7.086e-08, global = 2.96173e-10, cumulative = -0.000168372
ExecutionTime = 641.87 s  ClockTime = 647 s

Time = 4999

DILUPBiCGStab:  Solving for Ux, Initial residual = 4.10146e-05, Final residual = 1.47437e-07, No Iterations 1
DILUPBiCGStab:  Solving for Uy, Initial residual = 2.73136e-05, Final residual = 1.03547e-07, No Iterations 1
DILUPBiCGStab:  Solving for Uz, Initial residual = 2.60714e-05, Final residual = 8.41978e-08, No Iterations 1
DICPCG:  Solving for G, Initial residual = 7.17124e-05, Final residual = 7.03508e-06, No Iterations 23
DILUPBiCGStab:  Solving for h, Initial residual = 0.000319883, Final residual = 2.0154e-07, No Iterations 1
DICPCG:  Solving for p_rgh, Initial residual = 4.97773e-05, Final residual = 8.74269e-07, No Iterations 64
time step continuity errors : sum local = 6.49615e-08, global = 1.94998e-10, cumulative = -0.000168372
ExecutionTime = 642 s  ClockTime = 647 s

Time = 5000

DILUPBiCGStab:  Solving for Ux, Initial residual = 4.09995e-05, Final residual = 1.47383e-07, No Iterations 1
DILUPBiCGStab:  Solving for Uy, Initial residual = 2.73053e-05, Final residual = 1.03525e-07, No Iterations 1
DILUPBiCGStab:  Solving for Uz, Initial residual = 2.60662e-05, Final residual = 8.4174e-08, No Iterations 1
DICPCG:  Solving for G, Initial residual = 7.17109e-05, Final residual = 7.00248e-06, No Iterations 23
DILUPBiCGStab:  Solving for h, Initial residual = 0.000319847, Final residual = 2.01517e-07, No Iterations 1
DICPCG:  Solving for p_rgh, Initial residual = 4.97734e-05, Final residual = 9.55515e-07, No Iterations 63
time step continuity errors : sum local = 7.10001e-08, global = 2.96895e-10, cumulative = -0.000168372
ExecutionTime = 642.15 s  ClockTime = 647 s

End

Finalising parallel run
