/*---------------------------------------------------------------------------*\
  =========                 |
  \\      /  F ield         | OpenFOAM: The Open Source CFD Toolbox
   \\    /   O peration     | Website:  https://openfoam.org
    \\  /    A nd           | Version:  9
     \\/     M anipulation  |
\*---------------------------------------------------------------------------*/
Build  : 9-89839ae3b8cd
Exec   : buoyantSimpleFoam -parallel
Date   : Apr 08 2022
Time   : 12:27:30
Host   : "0b4a0c9cd4c1"
PID    : 12562
I/O    : uncollated
Case   : /home/openfoam/STL_ThermalZones/STL_IGU_25_N4_AER2
nProcs : 16
Slaves : 
15
(
"0b4a0c9cd4c1.12563"
"0b4a0c9cd4c1.12564"
"0b4a0c9cd4c1.12565"
"0b4a0c9cd4c1.12566"
"0b4a0c9cd4c1.12567"
"0b4a0c9cd4c1.12568"
"0b4a0c9cd4c1.12569"
"0b4a0c9cd4c1.12570"
"0b4a0c9cd4c1.12571"
"0b4a0c9cd4c1.12572"
"0b4a0c9cd4c1.12573"
"0b4a0c9cd4c1.12574"
"0b4a0c9cd4c1.12575"
"0b4a0c9cd4c1.12576"
"0b4a0c9cd4c1.12577"
)

Pstream initialised with:
    floatTransfer      : 0
    nProcsSimpleSum    : 0
    commsType          : nonBlocking
    polling iterations : 0
sigFpe : Enabling floating point exception trapping (FOAM_SIGFPE).
fileModificationChecking : Monitoring run-time modified files using timeStampMaster (fileModificationSkew 10)
allowSystemOperations : Allowing user-supplied system call operations

// * * * * * * * * * * * * * * * * * * * * * * * * * * * * * * * * * * * * * //
Create time

Create mesh for time = 0


SIMPLE: Convergence criteria found
        p_rgh: tolerance 0.0001
        U: tolerance 0.0001
        h: tolerance 0.0001
        G: tolerance 1e-05
        "(k|epsilon|omega)": tolerance 0.0001

Reading thermophysical properties

Selecting thermodynamics package 
{
    type            heRhoThermo;
    mixture         pureMixture;
    transport       const;
    thermo          hConst;
    equationOfState perfectGas;
    specie          specie;
    energy          sensibleEnthalpy;
}

Reading field U

Reading/calculating face flux field phi

Creating turbulence model

Selecting turbulence model type RAS
Selecting RAS turbulence model kEpsilon
RAS
{
    model           kEpsilon;
    turbulence      off;
    printCoeffs     on;
    Cmu             0.09;
    C1              1.44;
    C2              1.92;
    C3              0;
    sigmak          1;
    sigmaEps        1.3;
}

Creating thermophysical transport model

Selecting thermophysical transport type RAS
Selecting default RAS thermophysical transport model unityLewisEddyDiffusivity

Reading g

Reading hRef
Calculating field g.h


Reading pRef
Reading field p_rgh

No MRF models present

Creating fvModels from "constant/fvModels"

Selecting finite volume model type radiation
    Name: radiation
Selecting radiationModel P1
Selecting absorptionEmissionModel constant
Selecting scatterModel none
Selecting soot model none
--> FOAM Warning : Creating fvConstraints from "system/fvOptions"

Selecting finite volume constraint type limitTemperature
    Name: limitTemperature
    - selecting all cells
    - selected 125432 cell(s) with volume 38.6416

Starting time loop

Time = 1

DILUPBiCGStab:  Solving for Ux, Initial residual = 1, Final residual = 0.0030458, No Iterations 1
DILUPBiCGStab:  Solving for Uy, Initial residual = 1, Final residual = 0.00292625, No Iterations 1
DILUPBiCGStab:  Solving for Uz, Initial residual = 1, Final residual = 0.00363415, No Iterations 1
DICPCG:  Solving for G, Initial residual = 1, Final residual = 0.0832059, No Iterations 25
DILUPBiCGStab:  Solving for h, Initial residual = 1, Final residual = 0.0091327, No Iterations 1
DICPCG:  Solving for p_rgh, Initial residual = 0.654739, Final residual = 0.00646682, No Iterations 69
time step continuity errors : sum local = 0.0248383, global = 1.27125e-05, cumulative = 1.27125e-05
ExecutionTime = 0.14 s  ClockTime = 0 s

Time = 2

DILUPBiCGStab:  Solving for Ux, Initial residual = 0.365452, Final residual = 0.00104277, No Iterations 1
DILUPBiCGStab:  Solving for Uy, Initial residual = 0.300232, Final residual = 0.00078051, No Iterations 1
DILUPBiCGStab:  Solving for Uz, Initial residual = 0.231852, Final residual = 0.000770586, No Iterations 1
DICPCG:  Solving for G, Initial residual = 0.596243, Final residual = 0.0537029, No Iterations 15
DILUPBiCGStab:  Solving for h, Initial residual = 0.0486894, Final residual = 0.000313675, No Iterations 1
DICPCG:  Solving for p_rgh, Initial residual = 0.805337, Final residual = 0.00732008, No Iterations 71
time step continuity errors : sum local = 0.00899865, global = 3.99906e-05, cumulative = 5.27031e-05
ExecutionTime = 0.23 s  ClockTime = 0 s

Time = 3

DILUPBiCGStab:  Solving for Ux, Initial residual = 0.298969, Final residual = 0.00088557, No Iterations 1
DILUPBiCGStab:  Solving for Uy, Initial residual = 0.298345, Final residual = 0.000851331, No Iterations 1
DILUPBiCGStab:  Solving for Uz, Initial residual = 0.898294, Final residual = 0.00301347, No Iterations 1
DICPCG:  Solving for G, Initial residual = 0.240845, Final residual = 0.0210716, No Iterations 13
DILUPBiCGStab:  Solving for h, Initial residual = 0.0316039, Final residual = 0.000209181, No Iterations 1
DICPCG:  Solving for p_rgh, Initial residual = 0.805792, Final residual = 0.00773623, No Iterations 73
time step continuity errors : sum local = 0.00884228, global = -4.30322e-05, cumulative = 9.67086e-06
ExecutionTime = 0.32 s  ClockTime = 0 s

Time = 4

DILUPBiCGStab:  Solving for Ux, Initial residual = 0.301583, Final residual = 0.000931477, No Iterations 1
DILUPBiCGStab:  Solving for Uy, Initial residual = 0.27093, Final residual = 0.000861644, No Iterations 1
DILUPBiCGStab:  Solving for Uz, Initial residual = 0.192399, Final residual = 0.000585154, No Iterations 1
DICPCG:  Solving for G, Initial residual = 0.0447319, Final residual = 0.00391804, No Iterations 17
DILUPBiCGStab:  Solving for h, Initial residual = 0.026932, Final residual = 0.000184708, No Iterations 1
DICPCG:  Solving for p_rgh, Initial residual = 0.634504, Final residual = 0.00591704, No Iterations 73
time step continuity errors : sum local = 0.00461371, global = -1.52505e-06, cumulative = 8.14582e-06
ExecutionTime = 0.41 s  ClockTime = 0 s

Time = 5

DILUPBiCGStab:  Solving for Ux, Initial residual = 0.233505, Final residual = 0.00067353, No Iterations 1
DILUPBiCGStab:  Solving for Uy, Initial residual = 0.258443, Final residual = 0.000711094, No Iterations 1
DILUPBiCGStab:  Solving for Uz, Initial residual = 0.777096, Final residual = 0.00358891, No Iterations 1
DICPCG:  Solving for G, Initial residual = 0.0134732, Final residual = 0.00131052, No Iterations 18
DILUPBiCGStab:  Solving for h, Initial residual = 0.0230219, Final residual = 0.000162284, No Iterations 1
DICPCG:  Solving for p_rgh, Initial residual = 0.688415, Final residual = 0.00633769, No Iterations 71
time step continuity errors : sum local = 0.00282068, global = 3.93017e-07, cumulative = 8.53883e-06
ExecutionTime = 0.49 s  ClockTime = 0 s

Time = 6

DILUPBiCGStab:  Solving for Ux, Initial residual = 0.236331, Final residual = 0.000692768, No Iterations 1
DILUPBiCGStab:  Solving for Uy, Initial residual = 0.245718, Final residual = 0.000707652, No Iterations 1
DILUPBiCGStab:  Solving for Uz, Initial residual = 0.330465, Final residual = 0.00120346, No Iterations 1
DICPCG:  Solving for G, Initial residual = 0.00785406, Final residual = 0.000654255, No Iterations 21
DILUPBiCGStab:  Solving for h, Initial residual = 0.0199618, Final residual = 0.00014505, No Iterations 1
DICPCG:  Solving for p_rgh, Initial residual = 0.625435, Final residual = 0.00592415, No Iterations 71
time step continuity errors : sum local = 0.00163204, global = -9.80894e-07, cumulative = 7.55794e-06
ExecutionTime = 0.58 s  ClockTime = 0 s

Time = 7

DILUPBiCGStab:  Solving for Ux, Initial residual = 0.151648, Final residual = 0.000434403, No Iterations 1
DILUPBiCGStab:  Solving for Uy, Initial residual = 0.163914, Final residual = 0.000431866, No Iterations 1
DILUPBiCGStab:  Solving for Uz, Initial residual = 0.466562, Final residual = 0.00199959, No Iterations 1
DICPCG:  Solving for G, Initial residual = 0.00578508, Final residual = 0.000507809, No Iterations 21
DILUPBiCGStab:  Solving for h, Initial residual = 0.017486, Final residual = 0.000131528, No Iterations 1
DICPCG:  Solving for p_rgh, Initial residual = 0.535917, Final residual = 0.00474833, No Iterations 68
time step continuity errors : sum local = 0.000836899, global = -3.84633e-07, cumulative = 7.17331e-06
ExecutionTime = 0.67 s  ClockTime = 0 s

Time = 8

DILUPBiCGStab:  Solving for Ux, Initial residual = 0.0880153, Final residual = 0.000262527, No Iterations 1
DILUPBiCGStab:  Solving for Uy, Initial residual = 0.111087, Final residual = 0.00033082, No Iterations 1
DILUPBiCGStab:  Solving for Uz, Initial residual = 0.253061, Final residual = 0.00094105, No Iterations 1
DICPCG:  Solving for G, Initial residual = 0.0048604, Final residual = 0.000434549, No Iterations 21
DILUPBiCGStab:  Solving for h, Initial residual = 0.0154276, Final residual = 0.000120028, No Iterations 1
DICPCG:  Solving for p_rgh, Initial residual = 0.442102, Final residual = 0.00369836, No Iterations 71
time step continuity errors : sum local = 0.000478432, global = -5.11719e-07, cumulative = 6.66159e-06
ExecutionTime = 0.76 s  ClockTime = 1 s

Time = 9

DILUPBiCGStab:  Solving for Ux, Initial residual = 0.0737067, Final residual = 0.000223411, No Iterations 1
DILUPBiCGStab:  Solving for Uy, Initial residual = 0.0891145, Final residual = 0.000257259, No Iterations 1
DILUPBiCGStab:  Solving for Uz, Initial residual = 0.166324, Final residual = 0.000724291, No Iterations 1
DICPCG:  Solving for G, Initial residual = 0.00411658, Final residual = 0.000359796, No Iterations 21
DILUPBiCGStab:  Solving for h, Initial residual = 0.0137748, Final residual = 0.000110604, No Iterations 1
DICPCG:  Solving for p_rgh, Initial residual = 0.296774, Final residual = 0.0027584, No Iterations 63
time step continuity errors : sum local = 0.000275865, global = -1.75923e-08, cumulative = 6.64399e-06
ExecutionTime = 0.86 s  ClockTime = 1 s

Time = 10

DILUPBiCGStab:  Solving for Ux, Initial residual = 0.0454196, Final residual = 0.000113311, No Iterations 1
DILUPBiCGStab:  Solving for Uy, Initial residual = 0.0695953, Final residual = 0.000181335, No Iterations 1
DILUPBiCGStab:  Solving for Uz, Initial residual = 0.132288, Final residual = 0.000546384, No Iterations 1
DICPCG:  Solving for G, Initial residual = 0.00352425, Final residual = 0.000310073, No Iterations 21
DILUPBiCGStab:  Solving for h, Initial residual = 0.0124223, Final residual = 0.000102486, No Iterations 1
DICPCG:  Solving for p_rgh, Initial residual = 0.22933, Final residual = 0.00194226, No Iterations 70
time step continuity errors : sum local = 0.000169807, global = 4.31323e-08, cumulative = 6.68713e-06
ExecutionTime = 0.95 s  ClockTime = 1 s

Time = 11

DILUPBiCGStab:  Solving for Ux, Initial residual = 0.0423465, Final residual = 0.000111944, No Iterations 1
DILUPBiCGStab:  Solving for Uy, Initial residual = 0.0604808, Final residual = 0.00015275, No Iterations 1
DILUPBiCGStab:  Solving for Uz, Initial residual = 0.0510766, Final residual = 0.000180577, No Iterations 1
DICPCG:  Solving for G, Initial residual = 0.00304863, Final residual = 0.000272579, No Iterations 21
DILUPBiCGStab:  Solving for h, Initial residual = 0.0112915, Final residual = 9.56298e-05, No Iterations 1
DICPCG:  Solving for p_rgh, Initial residual = 0.130196, Final residual = 0.00127254, No Iterations 25
time step continuity errors : sum local = 0.000100017, global = 2.19956e-05, cumulative = 2.86827e-05
ExecutionTime = 1.03 s  ClockTime = 1 s

Time = 12

DILUPBiCGStab:  Solving for Ux, Initial residual = 0.0293201, Final residual = 6.84999e-05, No Iterations 1
DILUPBiCGStab:  Solving for Uy, Initial residual = 0.0446767, Final residual = 9.82798e-05, No Iterations 1
DILUPBiCGStab:  Solving for Uz, Initial residual = 0.0571971, Final residual = 0.000199025, No Iterations 1
DICPCG:  Solving for G, Initial residual = 0.0026583, Final residual = 0.00023533, No Iterations 21
DILUPBiCGStab:  Solving for h, Initial residual = 0.0103401, Final residual = 8.97331e-05, No Iterations 1
DICPCG:  Solving for p_rgh, Initial residual = 0.0982399, Final residual = 0.000945879, No Iterations 68
time step continuity errors : sum local = 7.01667e-05, global = -5.17717e-08, cumulative = 2.8631e-05
ExecutionTime = 1.11 s  ClockTime = 1 s

Time = 13

DILUPBiCGStab:  Solving for Ux, Initial residual = 0.0260205, Final residual = 6.66341e-05, No Iterations 1
DILUPBiCGStab:  Solving for Uy, Initial residual = 0.0409356, Final residual = 9.98342e-05, No Iterations 1
DILUPBiCGStab:  Solving for Uz, Initial residual = 0.0316592, Final residual = 9.41463e-05, No Iterations 1
DICPCG:  Solving for G, Initial residual = 0.00233664, Final residual = 0.000211442, No Iterations 21
DILUPBiCGStab:  Solving for h, Initial residual = 0.00952159, Final residual = 8.46993e-05, No Iterations 1
DICPCG:  Solving for p_rgh, Initial residual = 0.069176, Final residual = 0.000585874, No Iterations 66
time step continuity errors : sum local = 4.18407e-05, global = 9.93643e-08, cumulative = 2.87303e-05
ExecutionTime = 1.2 s  ClockTime = 1 s

Time = 14

DILUPBiCGStab:  Solving for Ux, Initial residual = 0.0224363, Final residual = 5.40094e-05, No Iterations 1
DILUPBiCGStab:  Solving for Uy, Initial residual = 0.0375983, Final residual = 9.41107e-05, No Iterations 1
DILUPBiCGStab:  Solving for Uz, Initial residual = 0.0326365, Final residual = 0.000111302, No Iterations 1
DICPCG:  Solving for G, Initial residual = 0.00206999, Final residual = 0.000182655, No Iterations 21
DILUPBiCGStab:  Solving for h, Initial residual = 0.00880907, Final residual = 8.03139e-05, No Iterations 1
DICPCG:  Solving for p_rgh, Initial residual = 0.0564377, Final residual = 0.000555534, No Iterations 24
time step continuity errors : sum local = 3.84198e-05, global = 1.01141e-05, cumulative = 3.88445e-05
ExecutionTime = 1.27 s  ClockTime = 1 s

Time = 15

DILUPBiCGStab:  Solving for Ux, Initial residual = 0.02069, Final residual = 4.99593e-05, No Iterations 1
DILUPBiCGStab:  Solving for Uy, Initial residual = 0.0345198, Final residual = 8.88059e-05, No Iterations 1
DILUPBiCGStab:  Solving for Uz, Initial residual = 0.0244073, Final residual = 7.37425e-05, No Iterations 1
DICPCG:  Solving for G, Initial residual = 0.001844, Final residual = 0.000167303, No Iterations 21
DILUPBiCGStab:  Solving for h, Initial residual = 0.00818309, Final residual = 7.64237e-05, No Iterations 1
DICPCG:  Solving for p_rgh, Initial residual = 0.046161, Final residual = 0.000429801, No Iterations 63
time step continuity errors : sum local = 2.88145e-05, global = 4.45059e-08, cumulative = 3.8889e-05
ExecutionTime = 1.35 s  ClockTime = 1 s

Time = 16

DILUPBiCGStab:  Solving for Ux, Initial residual = 0.018994, Final residual = 4.66941e-05, No Iterations 1
DILUPBiCGStab:  Solving for Uy, Initial residual = 0.0317322, Final residual = 8.18783e-05, No Iterations 1
DILUPBiCGStab:  Solving for Uz, Initial residual = 0.0221186, Final residual = 6.52833e-05, No Iterations 1
DICPCG:  Solving for G, Initial residual = 0.00165479, Final residual = 0.000145979, No Iterations 21
DILUPBiCGStab:  Solving for h, Initial residual = 0.0076308, Final residual = 7.28771e-05, No Iterations 1
DICPCG:  Solving for p_rgh, Initial residual = 0.0410813, Final residual = 0.000359098, No Iterations 55
time step continuity errors : sum local = 2.34301e-05, global = 9.30767e-08, cumulative = 3.8982e-05
ExecutionTime = 1.43 s  ClockTime = 1 s

Time = 17

DILUPBiCGStab:  Solving for Ux, Initial residual = 0.0174896, Final residual = 4.44003e-05, No Iterations 1
DILUPBiCGStab:  Solving for Uy, Initial residual = 0.0296133, Final residual = 7.77157e-05, No Iterations 1
DILUPBiCGStab:  Solving for Uz, Initial residual = 0.0206914, Final residual = 6.09471e-05, No Iterations 1
DICPCG:  Solving for G, Initial residual = 0.00153659, Final residual = 0.000143552, No Iterations 20
DILUPBiCGStab:  Solving for h, Initial residual = 0.00713972, Final residual = 6.9611e-05, No Iterations 1
DICPCG:  Solving for p_rgh, Initial residual = 0.0381468, Final residual = 0.000348304, No Iterations 60
time step continuity errors : sum local = 2.21557e-05, global = 1.00318e-07, cumulative = 3.90824e-05
ExecutionTime = 1.52 s  ClockTime = 1 s

Time = 18

DILUPBiCGStab:  Solving for Ux, Initial residual = 0.016226, Final residual = 4.16951e-05, No Iterations 1
DILUPBiCGStab:  Solving for Uy, Initial residual = 0.0281067, Final residual = 7.59229e-05, No Iterations 1
DILUPBiCGStab:  Solving for Uz, Initial residual = 0.0195512, Final residual = 5.81415e-05, No Iterations 1
DICPCG:  Solving for G, Initial residual = 0.00135852, Final residual = 0.000118426, No Iterations 21
DILUPBiCGStab:  Solving for h, Initial residual = 0.00670126, Final residual = 6.66229e-05, No Iterations 1
DICPCG:  Solving for p_rgh, Initial residual = 0.0344418, Final residual = 0.000342659, No Iterations 15
time step continuity errors : sum local = 2.12234e-05, global = 2.21655e-06, cumulative = 4.12989e-05
ExecutionTime = 1.6 s  ClockTime = 1 s

Time = 19

DILUPBiCGStab:  Solving for Ux, Initial residual = 0.0151263, Final residual = 3.94004e-05, No Iterations 1
DILUPBiCGStab:  Solving for Uy, Initial residual = 0.0265721, Final residual = 7.34283e-05, No Iterations 1
DILUPBiCGStab:  Solving for Uz, Initial residual = 0.0179671, Final residual = 5.35189e-05, No Iterations 1
DICPCG:  Solving for G, Initial residual = 0.00125236, Final residual = 0.00011929, No Iterations 20
DILUPBiCGStab:  Solving for h, Initial residual = 0.00630755, Final residual = 2.57493e-06, No Iterations 1
DICPCG:  Solving for p_rgh, Initial residual = 0.0314826, Final residual = 0.000299608, No Iterations 15
time step continuity errors : sum local = 1.80903e-05, global = 1.14949e-06, cumulative = 4.24484e-05
ExecutionTime = 1.67 s  ClockTime = 2 s

Time = 20

DILUPBiCGStab:  Solving for Ux, Initial residual = 0.0141796, Final residual = 3.7798e-05, No Iterations 1
DILUPBiCGStab:  Solving for Uy, Initial residual = 0.025132, Final residual = 7.06868e-05, No Iterations 1
DILUPBiCGStab:  Solving for Uz, Initial residual = 0.0167336, Final residual = 5.03088e-05, No Iterations 1
DICPCG:  Solving for G, Initial residual = 0.0011341, Final residual = 9.59296e-05, No Iterations 21
DILUPBiCGStab:  Solving for h, Initial residual = 0.00595361, Final residual = 2.47711e-06, No Iterations 1
DICPCG:  Solving for p_rgh, Initial residual = 0.0287983, Final residual = 0.000267464, No Iterations 12
time step continuity errors : sum local = 1.57548e-05, global = -1.09396e-06, cumulative = 4.13545e-05
ExecutionTime = 1.75 s  ClockTime = 2 s

Time = 21

DILUPBiCGStab:  Solving for Ux, Initial residual = 0.0133311, Final residual = 3.66074e-05, No Iterations 1
DILUPBiCGStab:  Solving for Uy, Initial residual = 0.0239193, Final residual = 6.86595e-05, No Iterations 1
DILUPBiCGStab:  Solving for Uz, Initial residual = 0.0157634, Final residual = 5.01459e-05, No Iterations 1
DICPCG:  Solving for G, Initial residual = 0.00103643, Final residual = 8.74002e-05, No Iterations 21
DILUPBiCGStab:  Solving for h, Initial residual = 0.00563369, Final residual = 2.38283e-06, No Iterations 1
DICPCG:  Solving for p_rgh, Initial residual = 0.0267529, Final residual = 0.000250156, No Iterations 16
time step continuity errors : sum local = 1.44025e-05, global = -4.5812e-06, cumulative = 3.67733e-05
ExecutionTime = 1.82 s  ClockTime = 2 s

Time = 22

DILUPBiCGStab:  Solving for Ux, Initial residual = 0.0125718, Final residual = 3.56121e-05, No Iterations 1
DILUPBiCGStab:  Solving for Uy, Initial residual = 0.0228687, Final residual = 6.71956e-05, No Iterations 1
DILUPBiCGStab:  Solving for Uz, Initial residual = 0.0149597, Final residual = 5.01271e-05, No Iterations 1
DICPCG:  Solving for G, Initial residual = 0.000955204, Final residual = 8.18419e-05, No Iterations 21
DILUPBiCGStab:  Solving for h, Initial residual = 0.00534324, Final residual = 2.2925e-06, No Iterations 1
DICPCG:  Solving for p_rgh, Initial residual = 0.0249831, Final residual = 0.00024525, No Iterations 49
time step continuity errors : sum local = 1.38244e-05, global = 1.99901e-08, cumulative = 3.67932e-05
ExecutionTime = 1.9 s  ClockTime = 2 s

Time = 23

DILUPBiCGStab:  Solving for Ux, Initial residual = 0.0119101, Final residual = 3.43762e-05, No Iterations 1
DILUPBiCGStab:  Solving for Uy, Initial residual = 0.0218966, Final residual = 6.45908e-05, No Iterations 1
DILUPBiCGStab:  Solving for Uz, Initial residual = 0.0141806, Final residual = 4.92411e-05, No Iterations 1
DICPCG:  Solving for G, Initial residual = 0.000900421, Final residual = 8.35314e-05, No Iterations 20
DILUPBiCGStab:  Solving for h, Initial residual = 0.00507839, Final residual = 2.20567e-06, No Iterations 1
DICPCG:  Solving for p_rgh, Initial residual = 0.0234061, Final residual = 0.000230892, No Iterations 24
time step continuity errors : sum local = 1.27617e-05, global = 2.90859e-06, cumulative = 3.97018e-05
ExecutionTime = 1.98 s  ClockTime = 2 s

Time = 24

DILUPBiCGStab:  Solving for Ux, Initial residual = 0.0113641, Final residual = 3.34886e-05, No Iterations 1
DILUPBiCGStab:  Solving for Uy, Initial residual = 0.021029, Final residual = 6.35668e-05, No Iterations 1
DILUPBiCGStab:  Solving for Uz, Initial residual = 0.0135521, Final residual = 4.62134e-05, No Iterations 1
DICPCG:  Solving for G, Initial residual = 0.000828784, Final residual = 7.0547e-05, No Iterations 21
DILUPBiCGStab:  Solving for h, Initial residual = 0.00483603, Final residual = 2.12338e-06, No Iterations 1
DICPCG:  Solving for p_rgh, Initial residual = 0.0219188, Final residual = 0.000200362, No Iterations 49
time step continuity errors : sum local = 1.08701e-05, global = 1.75368e-07, cumulative = 3.98772e-05
ExecutionTime = 2.06 s  ClockTime = 2 s

Time = 25

DILUPBiCGStab:  Solving for Ux, Initial residual = 0.0108155, Final residual = 3.24931e-05, No Iterations 1
DILUPBiCGStab:  Solving for Uy, Initial residual = 0.0203273, Final residual = 6.29688e-05, No Iterations 1
DILUPBiCGStab:  Solving for Uz, Initial residual = 0.0129926, Final residual = 4.70714e-05, No Iterations 1
DICPCG:  Solving for G, Initial residual = 0.00077042, Final residual = 6.49093e-05, No Iterations 21
DILUPBiCGStab:  Solving for h, Initial residual = 0.00461334, Final residual = 2.04558e-06, No Iterations 1
DICPCG:  Solving for p_rgh, Initial residual = 0.0206634, Final residual = 0.000204309, No Iterations 14
time step continuity errors : sum local = 1.09025e-05, global = -1.86095e-06, cumulative = 3.80163e-05
ExecutionTime = 2.13 s  ClockTime = 2 s

Time = 26

DILUPBiCGStab:  Solving for Ux, Initial residual = 0.0103642, Final residual = 3.16098e-05, No Iterations 1
DILUPBiCGStab:  Solving for Uy, Initial residual = 0.0196865, Final residual = 6.1994e-05, No Iterations 1
DILUPBiCGStab:  Solving for Uz, Initial residual = 0.0124554, Final residual = 4.60807e-05, No Iterations 1
DICPCG:  Solving for G, Initial residual = 0.00071984, Final residual = 5.95109e-05, No Iterations 21
DILUPBiCGStab:  Solving for h, Initial residual = 0.00440835, Final residual = 1.97188e-06, No Iterations 1
DICPCG:  Solving for p_rgh, Initial residual = 0.0195438, Final residual = 0.000173743, No Iterations 50
time step continuity errors : sum local = 9.12096e-06, global = -1.86139e-07, cumulative = 3.78301e-05
ExecutionTime = 2.21 s  ClockTime = 2 s

Time = 27

DILUPBiCGStab:  Solving for Ux, Initial residual = 0.00992307, Final residual = 3.04484e-05, No Iterations 1
DILUPBiCGStab:  Solving for Uy, Initial residual = 0.0190208, Final residual = 6.07601e-05, No Iterations 1
DILUPBiCGStab:  Solving for Uz, Initial residual = 0.0119654, Final residual = 4.48123e-05, No Iterations 1
DICPCG:  Solving for G, Initial residual = 0.000675059, Final residual = 5.51638e-05, No Iterations 21
DILUPBiCGStab:  Solving for h, Initial residual = 0.00421899, Final residual = 1.9019e-06, No Iterations 1
DICPCG:  Solving for p_rgh, Initial residual = 0.0184768, Final residual = 0.000170348, No Iterations 18
time step continuity errors : sum local = 8.79974e-06, global = -7.7952e-07, cumulative = 3.70506e-05
ExecutionTime = 2.28 s  ClockTime = 2 s

Time = 28

DILUPBiCGStab:  Solving for Ux, Initial residual = 0.00952878, Final residual = 2.96294e-05, No Iterations 1
DILUPBiCGStab:  Solving for Uy, Initial residual = 0.018397, Final residual = 5.92701e-05, No Iterations 1
DILUPBiCGStab:  Solving for Uz, Initial residual = 0.0115408, Final residual = 4.35146e-05, No Iterations 1
DICPCG:  Solving for G, Initial residual = 0.000635399, Final residual = 5.19306e-05, No Iterations 21
DILUPBiCGStab:  Solving for h, Initial residual = 0.00404365, Final residual = 1.83585e-06, No Iterations 1
DICPCG:  Solving for p_rgh, Initial residual = 0.0175018, Final residual = 0.00017145, No Iterations 14
time step continuity errors : sum local = 8.73025e-06, global = -1.4157e-07, cumulative = 3.6909e-05
ExecutionTime = 2.36 s  ClockTime = 2 s

Time = 29

DILUPBiCGStab:  Solving for Ux, Initial residual = 0.00917042, Final residual = 2.88685e-05, No Iterations 1
DILUPBiCGStab:  Solving for Uy, Initial residual = 0.0178332, Final residual = 5.7793e-05, No Iterations 1
DILUPBiCGStab:  Solving for Uz, Initial residual = 0.0111515, Final residual = 4.22425e-05, No Iterations 1
DICPCG:  Solving for G, Initial residual = 0.000599499, Final residual = 5.96266e-05, No Iterations 20
DILUPBiCGStab:  Solving for h, Initial residual = 0.00388076, Final residual = 1.77334e-06, No Iterations 1
DICPCG:  Solving for p_rgh, Initial residual = 0.0166378, Final residual = 0.000165018, No Iterations 15
time step continuity errors : sum local = 8.2891e-06, global = 2.30117e-07, cumulative = 3.71391e-05
ExecutionTime = 2.43 s  ClockTime = 2 s

Time = 30

DILUPBiCGStab:  Solving for Ux, Initial residual = 0.00882524, Final residual = 2.80044e-05, No Iterations 1
DILUPBiCGStab:  Solving for Uy, Initial residual = 0.0173071, Final residual = 5.64818e-05, No Iterations 1
DILUPBiCGStab:  Solving for Uz, Initial residual = 0.010801, Final residual = 4.10907e-05, No Iterations 1
DICPCG:  Solving for G, Initial residual = 0.000571799, Final residual = 5.54371e-05, No Iterations 20
DILUPBiCGStab:  Solving for h, Initial residual = 0.00372922, Final residual = 1.71412e-06, No Iterations 1
DICPCG:  Solving for p_rgh, Initial residual = 0.0158668, Final residual = 0.000157781, No Iterations 15
time step continuity errors : sum local = 7.82358e-06, global = 3.9427e-07, cumulative = 3.75334e-05
ExecutionTime = 2.51 s  ClockTime = 2 s

Time = 31

DILUPBiCGStab:  Solving for Ux, Initial residual = 0.0085153, Final residual = 2.72035e-05, No Iterations 1
DILUPBiCGStab:  Solving for Uy, Initial residual = 0.0168045, Final residual = 5.51719e-05, No Iterations 1
DILUPBiCGStab:  Solving for Uz, Initial residual = 0.010478, Final residual = 3.99916e-05, No Iterations 1
DICPCG:  Solving for G, Initial residual = 0.000541372, Final residual = 5.30423e-05, No Iterations 20
DILUPBiCGStab:  Solving for h, Initial residual = 0.003588, Final residual = 1.65803e-06, No Iterations 1
DICPCG:  Solving for p_rgh, Initial residual = 0.0151603, Final residual = 0.000130654, No Iterations 18
time step continuity errors : sum local = 6.39916e-06, global = 4.24566e-07, cumulative = 3.7958e-05
ExecutionTime = 2.58 s  ClockTime = 2 s

Time = 32

DILUPBiCGStab:  Solving for Ux, Initial residual = 0.00823413, Final residual = 2.64129e-05, No Iterations 1
DILUPBiCGStab:  Solving for Uy, Initial residual = 0.0163309, Final residual = 5.39376e-05, No Iterations 1
DILUPBiCGStab:  Solving for Uz, Initial residual = 0.0101806, Final residual = 3.89616e-05, No Iterations 1
DICPCG:  Solving for G, Initial residual = 0.000514509, Final residual = 5.08751e-05, No Iterations 20
DILUPBiCGStab:  Solving for h, Initial residual = 0.00345637, Final residual = 1.60497e-06, No Iterations 1
DICPCG:  Solving for p_rgh, Initial residual = 0.0145113, Final residual = 0.000136482, No Iterations 18
time step continuity errors : sum local = 6.60664e-06, global = 3.43043e-07, cumulative = 3.8301e-05
ExecutionTime = 2.66 s  ClockTime = 2 s

Time = 33

DILUPBiCGStab:  Solving for Ux, Initial residual = 0.00797853, Final residual = 2.57368e-05, No Iterations 1
DILUPBiCGStab:  Solving for Uy, Initial residual = 0.0158783, Final residual = 5.25899e-05, No Iterations 1
DILUPBiCGStab:  Solving for Uz, Initial residual = 0.00990179, Final residual = 3.79805e-05, No Iterations 1
DICPCG:  Solving for G, Initial residual = 0.000489997, Final residual = 4.79147e-05, No Iterations 20
DILUPBiCGStab:  Solving for h, Initial residual = 0.00333324, Final residual = 1.55461e-06, No Iterations 1
DICPCG:  Solving for p_rgh, Initial residual = 0.0139073, Final residual = 0.000132772, No Iterations 15
time step continuity errors : sum local = 6.35565e-06, global = 2.88583e-07, cumulative = 3.85896e-05
ExecutionTime = 2.73 s  ClockTime = 3 s

Time = 34

DILUPBiCGStab:  Solving for Ux, Initial residual = 0.00773927, Final residual = 2.51492e-05, No Iterations 1
DILUPBiCGStab:  Solving for Uy, Initial residual = 0.0154406, Final residual = 5.11796e-05, No Iterations 1
DILUPBiCGStab:  Solving for Uz, Initial residual = 0.00964515, Final residual = 3.70593e-05, No Iterations 1
DICPCG:  Solving for G, Initial residual = 0.000467367, Final residual = 4.60543e-05, No Iterations 20
DILUPBiCGStab:  Solving for h, Initial residual = 0.0032178, Final residual = 1.50677e-06, No Iterations 1
DICPCG:  Solving for p_rgh, Initial residual = 0.0133541, Final residual = 0.000116195, No Iterations 17
time step continuity errors : sum local = 5.50319e-06, global = 2.78908e-07, cumulative = 3.88685e-05
ExecutionTime = 2.8 s  ClockTime = 3 s

Time = 35

DILUPBiCGStab:  Solving for Ux, Initial residual = 0.00750284, Final residual = 2.4438e-05, No Iterations 1
DILUPBiCGStab:  Solving for Uy, Initial residual = 0.0150121, Final residual = 4.98896e-05, No Iterations 1
DILUPBiCGStab:  Solving for Uz, Initial residual = 0.00941415, Final residual = 3.62409e-05, No Iterations 1
DICPCG:  Solving for G, Initial residual = 0.000446866, Final residual = 4.23673e-05, No Iterations 20
DILUPBiCGStab:  Solving for h, Initial residual = 0.00310949, Final residual = 1.46142e-06, No Iterations 1
DICPCG:  Solving for p_rgh, Initial residual = 0.0128431, Final residual = 0.000116391, No Iterations 17
time step continuity errors : sum local = 5.45647e-06, global = 3.58868e-07, cumulative = 3.92274e-05
ExecutionTime = 2.88 s  ClockTime = 3 s

Time = 36

DILUPBiCGStab:  Solving for Ux, Initial residual = 0.00728514, Final residual = 2.38341e-05, No Iterations 1
DILUPBiCGStab:  Solving for Uy, Initial residual = 0.0146092, Final residual = 4.86348e-05, No Iterations 1
DILUPBiCGStab:  Solving for Uz, Initial residual = 0.00919758, Final residual = 3.54551e-05, No Iterations 1
DICPCG:  Solving for G, Initial residual = 0.000427392, Final residual = 4.07086e-05, No Iterations 20
DILUPBiCGStab:  Solving for h, Initial residual = 0.0030078, Final residual = 1.41836e-06, No Iterations 1
DICPCG:  Solving for p_rgh, Initial residual = 0.012368, Final residual = 0.000115593, No Iterations 17
time step continuity errors : sum local = 5.36614e-06, global = 5.25569e-07, cumulative = 3.97529e-05
ExecutionTime = 2.95 s  ClockTime = 3 s

Time = 37

DILUPBiCGStab:  Solving for Ux, Initial residual = 0.00708219, Final residual = 2.33094e-05, No Iterations 1
DILUPBiCGStab:  Solving for Uy, Initial residual = 0.0142246, Final residual = 4.74048e-05, No Iterations 1
DILUPBiCGStab:  Solving for Uz, Initial residual = 0.00899555, Final residual = 3.47132e-05, No Iterations 1
DICPCG:  Solving for G, Initial residual = 0.000409935, Final residual = 3.91864e-05, No Iterations 20
DILUPBiCGStab:  Solving for h, Initial residual = 0.00291217, Final residual = 1.37745e-06, No Iterations 1
DICPCG:  Solving for p_rgh, Initial residual = 0.0119244, Final residual = 0.000115271, No Iterations 17
time step continuity errors : sum local = 5.30091e-06, global = 7.73552e-07, cumulative = 4.05265e-05
ExecutionTime = 3.02 s  ClockTime = 3 s

Time = 38

DILUPBiCGStab:  Solving for Ux, Initial residual = 0.00688897, Final residual = 2.27969e-05, No Iterations 1
DILUPBiCGStab:  Solving for Uy, Initial residual = 0.0138523, Final residual = 4.61992e-05, No Iterations 1
DILUPBiCGStab:  Solving for Uz, Initial residual = 0.00880886, Final residual = 3.40218e-05, No Iterations 1
DICPCG:  Solving for G, Initial residual = 0.000393779, Final residual = 3.73023e-05, No Iterations 20
DILUPBiCGStab:  Solving for h, Initial residual = 0.00282211, Final residual = 1.33855e-06, No Iterations 1
DICPCG:  Solving for p_rgh, Initial residual = 0.0115134, Final residual = 0.000102986, No Iterations 18
time step continuity errors : sum local = 4.69317e-06, global = 1.08668e-06, cumulative = 4.16132e-05
ExecutionTime = 3.09 s  ClockTime = 3 s

Time = 39

DILUPBiCGStab:  Solving for Ux, Initial residual = 0.00670572, Final residual = 2.22761e-05, No Iterations 1
DILUPBiCGStab:  Solving for Uy, Initial residual = 0.0134932, Final residual = 4.5027e-05, No Iterations 1
DILUPBiCGStab:  Solving for Uz, Initial residual = 0.00863658, Final residual = 3.3372e-05, No Iterations 1
DICPCG:  Solving for G, Initial residual = 0.000378726, Final residual = 3.25582e-05, No Iterations 20
DILUPBiCGStab:  Solving for h, Initial residual = 0.00273718, Final residual = 1.3016e-06, No Iterations 1
DICPCG:  Solving for p_rgh, Initial residual = 0.0111381, Final residual = 0.000108536, No Iterations 19
time step continuity errors : sum local = 4.90342e-06, global = 1.43052e-06, cumulative = 4.30437e-05
ExecutionTime = 3.16 s  ClockTime = 3 s

Time = 40

DILUPBiCGStab:  Solving for Ux, Initial residual = 0.00653301, Final residual = 2.17894e-05, No Iterations 1
DILUPBiCGStab:  Solving for Uy, Initial residual = 0.0131526, Final residual = 4.38903e-05, No Iterations 1
DILUPBiCGStab:  Solving for Uz, Initial residual = 0.00847613, Final residual = 3.27641e-05, No Iterations 1
DICPCG:  Solving for G, Initial residual = 0.000364211, Final residual = 3.35049e-05, No Iterations 20
DILUPBiCGStab:  Solving for h, Initial residual = 0.00265718, Final residual = 1.26651e-06, No Iterations 1
DICPCG:  Solving for p_rgh, Initial residual = 0.0107884, Final residual = 9.65593e-05, No Iterations 54
time step continuity errors : sum local = 4.32647e-06, global = 1.61946e-08, cumulative = 4.30599e-05
ExecutionTime = 3.25 s  ClockTime = 3 s

Time = 41

DILUPBiCGStab:  Solving for Ux, Initial residual = 0.00638093, Final residual = 2.12879e-05, No Iterations 1
DILUPBiCGStab:  Solving for Uy, Initial residual = 0.0128557, Final residual = 4.28068e-05, No Iterations 1
DILUPBiCGStab:  Solving for Uz, Initial residual = 0.00832252, Final residual = 3.21221e-05, No Iterations 1
DICPCG:  Solving for G, Initial residual = 0.000351958, Final residual = 3.17529e-05, No Iterations 20
DILUPBiCGStab:  Solving for h, Initial residual = 0.00258172, Final residual = 1.2332e-06, No Iterations 1
DICPCG:  Solving for p_rgh, Initial residual = 0.0104754, Final residual = 0.000103809, No Iterations 17
time step continuity errors : sum local = 4.61584e-06, global = -3.99777e-07, cumulative = 4.26601e-05
ExecutionTime = 3.33 s  ClockTime = 3 s

Time = 42

DILUPBiCGStab:  Solving for Ux, Initial residual = 0.00622053, Final residual = 2.09865e-05, No Iterations 1
DILUPBiCGStab:  Solving for Uy, Initial residual = 0.0125314, Final residual = 4.17401e-05, No Iterations 1
DILUPBiCGStab:  Solving for Uz, Initial residual = 0.00818759, Final residual = 3.16371e-05, No Iterations 1
DICPCG:  Solving for G, Initial residual = 0.000339831, Final residual = 3.00071e-05, No Iterations 20
DILUPBiCGStab:  Solving for h, Initial residual = 0.00251047, Final residual = 1.20146e-06, No Iterations 1
DICPCG:  Solving for p_rgh, Initial residual = 0.0101623, Final residual = 9.27159e-05, No Iterations 19
time step continuity errors : sum local = 4.09123e-06, global = -9.80483e-07, cumulative = 4.16796e-05
ExecutionTime = 3.4 s  ClockTime = 3 s

Time = 43

DILUPBiCGStab:  Solving for Ux, Initial residual = 0.00606476, Final residual = 2.05499e-05, No Iterations 1
DILUPBiCGStab:  Solving for Uy, Initial residual = 0.0122244, Final residual = 4.07186e-05, No Iterations 1
DILUPBiCGStab:  Solving for Uz, Initial residual = 0.00805721, Final residual = 3.11207e-05, No Iterations 1
DICPCG:  Solving for G, Initial residual = 0.00032862, Final residual = 2.83975e-05, No Iterations 20
DILUPBiCGStab:  Solving for h, Initial residual = 0.00244316, Final residual = 1.1712e-06, No Iterations 1
DICPCG:  Solving for p_rgh, Initial residual = 0.00986906, Final residual = 9.77177e-05, No Iterations 56
time step continuity errors : sum local = 4.2803e-06, global = -8.36839e-08, cumulative = 4.1596e-05
ExecutionTime = 3.48 s  ClockTime = 3 s

Time = 44

DILUPBiCGStab:  Solving for Ux, Initial residual = 0.0059169, Final residual = 2.00358e-05, No Iterations 1
DILUPBiCGStab:  Solving for Uy, Initial residual = 0.011946, Final residual = 3.9719e-05, No Iterations 1
DILUPBiCGStab:  Solving for Uz, Initial residual = 0.00793429, Final residual = 3.06229e-05, No Iterations 1
DICPCG:  Solving for G, Initial residual = 0.000318271, Final residual = 2.72174e-05, No Iterations 20
DILUPBiCGStab:  Solving for h, Initial residual = 0.00237955, Final residual = 1.14238e-06, No Iterations 1
DICPCG:  Solving for p_rgh, Initial residual = 0.00957676, Final residual = 9.04177e-05, No Iterations 17
time step continuity errors : sum local = 3.93179e-06, global = 5.31075e-07, cumulative = 4.2127e-05
ExecutionTime = 3.56 s  ClockTime = 3 s

Time = 45

DILUPBiCGStab:  Solving for Ux, Initial residual = 0.00577841, Final residual = 1.97646e-05, No Iterations 1
DILUPBiCGStab:  Solving for Uy, Initial residual = 0.0116613, Final residual = 3.8765e-05, No Iterations 1
DILUPBiCGStab:  Solving for Uz, Initial residual = 0.00782472, Final residual = 3.02331e-05, No Iterations 1
DICPCG:  Solving for G, Initial residual = 0.000308604, Final residual = 2.91048e-05, No Iterations 19
DILUPBiCGStab:  Solving for h, Initial residual = 0.00231935, Final residual = 1.11494e-06, No Iterations 1
DICPCG:  Solving for p_rgh, Initial residual = 0.00930484, Final residual = 8.92e-05, No Iterations 50
time step continuity errors : sum local = 3.85229e-06, global = 2.04305e-08, cumulative = 4.21475e-05
ExecutionTime = 3.66 s  ClockTime = 4 s

Time = 46

DILUPBiCGStab:  Solving for Ux, Initial residual = 0.00565018, Final residual = 1.94091e-05, No Iterations 1
DILUPBiCGStab:  Solving for Uy, Initial residual = 0.0114061, Final residual = 3.79581e-05, No Iterations 1
DILUPBiCGStab:  Solving for Uz, Initial residual = 0.00771042, Final residual = 2.97466e-05, No Iterations 1
DICPCG:  Solving for G, Initial residual = 0.000299836, Final residual = 2.83757e-05, No Iterations 19
DILUPBiCGStab:  Solving for h, Initial residual = 0.00226232, Final residual = 1.0888e-06, No Iterations 1
DICPCG:  Solving for p_rgh, Initial residual = 0.00908012, Final residual = 8.63822e-05, No Iterations 18
time step continuity errors : sum local = 3.70662e-06, global = 2.21197e-07, cumulative = 4.23687e-05
ExecutionTime = 3.73 s  ClockTime = 4 s

Time = 47

DILUPBiCGStab:  Solving for Ux, Initial residual = 0.00552508, Final residual = 1.90469e-05, No Iterations 1
DILUPBiCGStab:  Solving for Uy, Initial residual = 0.0111559, Final residual = 3.69423e-05, No Iterations 1
DILUPBiCGStab:  Solving for Uz, Initial residual = 0.00760612, Final residual = 2.93272e-05, No Iterations 1
DICPCG:  Solving for G, Initial residual = 0.000291189, Final residual = 2.54611e-05, No Iterations 19
DILUPBiCGStab:  Solving for h, Initial residual = 0.00220831, Final residual = 1.06386e-06, No Iterations 1
DICPCG:  Solving for p_rgh, Initial residual = 0.00885087, Final residual = 8.32525e-05, No Iterations 25
time step continuity errors : sum local = 3.54928e-06, global = 8.28925e-08, cumulative = 4.24515e-05
ExecutionTime = 3.82 s  ClockTime = 4 s

Time = 48

DILUPBiCGStab:  Solving for Ux, Initial residual = 0.00540284, Final residual = 1.86115e-05, No Iterations 1
DILUPBiCGStab:  Solving for Uy, Initial residual = 0.0109066, Final residual = 3.60813e-05, No Iterations 1
DILUPBiCGStab:  Solving for Uz, Initial residual = 0.00751239, Final residual = 2.89193e-05, No Iterations 1
DICPCG:  Solving for G, Initial residual = 0.0002831, Final residual = 2.68487e-05, No Iterations 18
DILUPBiCGStab:  Solving for h, Initial residual = 0.00215706, Final residual = 1.04013e-06, No Iterations 1
DICPCG:  Solving for p_rgh, Initial residual = 0.00863172, Final residual = 7.20721e-05, No Iterations 18
time step continuity errors : sum local = 3.05346e-06, global = 2.24797e-07, cumulative = 4.26763e-05
ExecutionTime = 3.9 s  ClockTime = 4 s

Time = 49

DILUPBiCGStab:  Solving for Ux, Initial residual = 0.00528855, Final residual = 1.83676e-05, No Iterations 1
DILUPBiCGStab:  Solving for Uy, Initial residual = 0.0106748, Final residual = 3.52674e-05, No Iterations 1
DILUPBiCGStab:  Solving for Uz, Initial residual = 0.00742394, Final residual = 2.85997e-05, No Iterations 1
DICPCG:  Solving for G, Initial residual = 0.000276043, Final residual = 2.62993e-05, No Iterations 18
DILUPBiCGStab:  Solving for h, Initial residual = 0.00210844, Final residual = 1.01752e-06, No Iterations 1
DICPCG:  Solving for p_rgh, Initial residual = 0.00840676, Final residual = 7.9212e-05, No Iterations 19
time step continuity errors : sum local = 3.33569e-06, global = 5.01523e-07, cumulative = 4.31779e-05
ExecutionTime = 3.99 s  ClockTime = 4 s

Time = 50

DILUPBiCGStab:  Solving for Ux, Initial residual = 0.00517304, Final residual = 1.80355e-05, No Iterations 1
DILUPBiCGStab:  Solving for Uy, Initial residual = 0.0104428, Final residual = 3.44926e-05, No Iterations 1
DILUPBiCGStab:  Solving for Uz, Initial residual = 0.00733977, Final residual = 2.82487e-05, No Iterations 1
DICPCG:  Solving for G, Initial residual = 0.000268912, Final residual = 2.58461e-05, No Iterations 17
DILUPBiCGStab:  Solving for h, Initial residual = 0.00206227, Final residual = 9.95948e-07, No Iterations 1
DICPCG:  Solving for p_rgh, Initial residual = 0.0082033, Final residual = 8.02514e-05, No Iterations 21
time step continuity errors : sum local = 3.35967e-06, global = 8.97054e-07, cumulative = 4.40749e-05
ExecutionTime = 4.08 s  ClockTime = 4 s

Time = 51

DILUPBiCGStab:  Solving for Ux, Initial residual = 0.00506108, Final residual = 1.77032e-05, No Iterations 1
DILUPBiCGStab:  Solving for Uy, Initial residual = 0.0102258, Final residual = 3.37672e-05, No Iterations 1
DILUPBiCGStab:  Solving for Uz, Initial residual = 0.00725694, Final residual = 2.7881e-05, No Iterations 1
DICPCG:  Solving for G, Initial residual = 0.00026359, Final residual = 2.4902e-05, No Iterations 17
DILUPBiCGStab:  Solving for h, Initial residual = 0.00201842, Final residual = 9.75358e-07, No Iterations 1
DICPCG:  Solving for p_rgh, Initial residual = 0.00800903, Final residual = 7.89608e-05, No Iterations 54
time step continuity errors : sum local = 3.28686e-06, global = 5.67468e-09, cumulative = 4.40806e-05
ExecutionTime = 4.16 s  ClockTime = 4 s

Time = 52

DILUPBiCGStab:  Solving for Ux, Initial residual = 0.00496739, Final residual = 1.73842e-05, No Iterations 1
DILUPBiCGStab:  Solving for Uy, Initial residual = 0.0100422, Final residual = 3.30797e-05, No Iterations 1
DILUPBiCGStab:  Solving for Uz, Initial residual = 0.00716597, Final residual = 2.74884e-05, No Iterations 1
DICPCG:  Solving for G, Initial residual = 0.00025723, Final residual = 2.32326e-05, No Iterations 17
DILUPBiCGStab:  Solving for h, Initial residual = 0.00197668, Final residual = 9.55728e-07, No Iterations 1
DICPCG:  Solving for p_rgh, Initial residual = 0.0078408, Final residual = 7.04368e-05, No Iterations 18
time step continuity errors : sum local = 2.91643e-06, global = -8.88223e-08, cumulative = 4.39918e-05
ExecutionTime = 4.24 s  ClockTime = 4 s

Time = 53

DILUPBiCGStab:  Solving for Ux, Initial residual = 0.00486152, Final residual = 1.72082e-05, No Iterations 1
DILUPBiCGStab:  Solving for Uy, Initial residual = 0.00982666, Final residual = 3.23266e-05, No Iterations 1
DILUPBiCGStab:  Solving for Uz, Initial residual = 0.00709881, Final residual = 2.72417e-05, No Iterations 1
DICPCG:  Solving for G, Initial residual = 0.00025124, Final residual = 2.2197e-05, No Iterations 17
DILUPBiCGStab:  Solving for h, Initial residual = 0.00193698, Final residual = 9.36953e-07, No Iterations 1
DICPCG:  Solving for p_rgh, Initial residual = 0.0076597, Final residual = 7.23681e-05, No Iterations 19
time step continuity errors : sum local = 2.98046e-06, global = -3.06491e-07, cumulative = 4.36853e-05
ExecutionTime = 4.32 s  ClockTime = 4 s

Time = 54

DILUPBiCGStab:  Solving for Ux, Initial residual = 0.00475709, Final residual = 1.69068e-05, No Iterations 1
DILUPBiCGStab:  Solving for Uy, Initial residual = 0.00962756, Final residual = 3.16461e-05, No Iterations 1
DILUPBiCGStab:  Solving for Uz, Initial residual = 0.0070294, Final residual = 2.69451e-05, No Iterations 1
DICPCG:  Solving for G, Initial residual = 0.000245959, Final residual = 2.1151e-05, No Iterations 17
DILUPBiCGStab:  Solving for h, Initial residual = 0.00189922, Final residual = 9.19033e-07, No Iterations 1
DICPCG:  Solving for p_rgh, Initial residual = 0.0074841, Final residual = 7.32591e-05, No Iterations 21
time step continuity errors : sum local = 3.00171e-06, global = -2.6712e-07, cumulative = 4.34182e-05
ExecutionTime = 4.39 s  ClockTime = 4 s

Time = 55

DILUPBiCGStab:  Solving for Ux, Initial residual = 0.00466113, Final residual = 1.6589e-05, No Iterations 1
DILUPBiCGStab:  Solving for Uy, Initial residual = 0.00944551, Final residual = 3.1037e-05, No Iterations 1
DILUPBiCGStab:  Solving for Uz, Initial residual = 0.00695877, Final residual = 2.66324e-05, No Iterations 1
DICPCG:  Solving for G, Initial residual = 0.00024084, Final residual = 2.40651e-05, No Iterations 16
DILUPBiCGStab:  Solving for h, Initial residual = 0.00186322, Final residual = 9.01928e-07, No Iterations 1
DICPCG:  Solving for p_rgh, Initial residual = 0.00731547, Final residual = 7.08036e-05, No Iterations 21
time step continuity errors : sum local = 2.88675e-06, global = -4.94224e-08, cumulative = 4.33687e-05
ExecutionTime = 4.48 s  ClockTime = 4 s

Time = 56

DILUPBiCGStab:  Solving for Ux, Initial residual = 0.00457337, Final residual = 1.63383e-05, No Iterations 1
DILUPBiCGStab:  Solving for Uy, Initial residual = 0.00927022, Final residual = 3.04265e-05, No Iterations 1
DILUPBiCGStab:  Solving for Uz, Initial residual = 0.00689164, Final residual = 2.63639e-05, No Iterations 1
DICPCG:  Solving for G, Initial residual = 0.000236394, Final residual = 2.06429e-05, No Iterations 17
DILUPBiCGStab:  Solving for h, Initial residual = 0.00182886, Final residual = 8.85606e-07, No Iterations 1
DICPCG:  Solving for p_rgh, Initial residual = 0.00715416, Final residual = 7.10023e-05, No Iterations 19
time step continuity errors : sum local = 2.88094e-06, global = 3.17032e-07, cumulative = 4.36858e-05
ExecutionTime = 4.55 s  ClockTime = 4 s

Time = 57

DILUPBiCGStab:  Solving for Ux, Initial residual = 0.00448571, Final residual = 1.61027e-05, No Iterations 1
DILUPBiCGStab:  Solving for Uy, Initial residual = 0.00909828, Final residual = 2.98097e-05, No Iterations 1
DILUPBiCGStab:  Solving for Uz, Initial residual = 0.00682775, Final residual = 2.61156e-05, No Iterations 1
DICPCG:  Solving for G, Initial residual = 0.000231899, Final residual = 2.08963e-05, No Iterations 17
DILUPBiCGStab:  Solving for h, Initial residual = 0.00179606, Final residual = 8.70025e-07, No Iterations 1
DICPCG:  Solving for p_rgh, Initial residual = 0.0070019, Final residual = 6.58014e-05, No Iterations 27
time step continuity errors : sum local = 2.65753e-06, global = 7.23653e-07, cumulative = 4.44094e-05
ExecutionTime = 4.63 s  ClockTime = 4 s

Time = 58

DILUPBiCGStab:  Solving for Ux, Initial residual = 0.00439897, Final residual = 1.58023e-05, No Iterations 1
DILUPBiCGStab:  Solving for Uy, Initial residual = 0.00893529, Final residual = 2.92968e-05, No Iterations 1
DILUPBiCGStab:  Solving for Uz, Initial residual = 0.00676329, Final residual = 2.58199e-05, No Iterations 1
DICPCG:  Solving for G, Initial residual = 0.000227721, Final residual = 2.04069e-05, No Iterations 17
DILUPBiCGStab:  Solving for h, Initial residual = 0.00176475, Final residual = 8.55154e-07, No Iterations 1
DICPCG:  Solving for p_rgh, Initial residual = 0.00685614, Final residual = 6.39187e-05, No Iterations 50
time step continuity errors : sum local = 2.56994e-06, global = -3.31401e-10, cumulative = 4.44091e-05
ExecutionTime = 4.71 s  ClockTime = 5 s

Time = 59

DILUPBiCGStab:  Solving for Ux, Initial residual = 0.00432469, Final residual = 1.56525e-05, No Iterations 1
DILUPBiCGStab:  Solving for Uy, Initial residual = 0.0087855, Final residual = 2.87386e-05, No Iterations 1
DILUPBiCGStab:  Solving for Uz, Initial residual = 0.00669241, Final residual = 2.55378e-05, No Iterations 1
DICPCG:  Solving for G, Initial residual = 0.000223708, Final residual = 2.0776e-05, No Iterations 17
DILUPBiCGStab:  Solving for h, Initial residual = 0.00173483, Final residual = 8.40971e-07, No Iterations 1
DICPCG:  Solving for p_rgh, Initial residual = 0.00672846, Final residual = 6.26889e-05, No Iterations 18
time step continuity errors : sum local = 2.50996e-06, global = -8.58233e-09, cumulative = 4.44005e-05
ExecutionTime = 4.79 s  ClockTime = 5 s

Time = 60

DILUPBiCGStab:  Solving for Ux, Initial residual = 0.00423834, Final residual = 1.54131e-05, No Iterations 1
DILUPBiCGStab:  Solving for Uy, Initial residual = 0.00862664, Final residual = 2.81181e-05, No Iterations 1
DILUPBiCGStab:  Solving for Uz, Initial residual = 0.00663517, Final residual = 2.53057e-05, No Iterations 1
DICPCG:  Solving for G, Initial residual = 0.000220424, Final residual = 2.07783e-05, No Iterations 17
DILUPBiCGStab:  Solving for h, Initial residual = 0.00170626, Final residual = 8.27443e-07, No Iterations 1
DICPCG:  Solving for p_rgh, Initial residual = 0.00658971, Final residual = 6.33252e-05, No Iterations 25
time step continuity errors : sum local = 2.5248e-06, global = -1.71127e-07, cumulative = 4.42294e-05
ExecutionTime = 4.88 s  ClockTime = 5 s

Time = 61

DILUPBiCGStab:  Solving for Ux, Initial residual = 0.00415651, Final residual = 1.51173e-05, No Iterations 1
DILUPBiCGStab:  Solving for Uy, Initial residual = 0.00847656, Final residual = 2.76747e-05, No Iterations 1
DILUPBiCGStab:  Solving for Uz, Initial residual = 0.00657821, Final residual = 2.50393e-05, No Iterations 1
DICPCG:  Solving for G, Initial residual = 0.000216994, Final residual = 2.08657e-05, No Iterations 17
DILUPBiCGStab:  Solving for h, Initial residual = 0.00167898, Final residual = 8.14525e-07, No Iterations 1
DICPCG:  Solving for p_rgh, Initial residual = 0.00645624, Final residual = 5.9033e-05, No Iterations 20
time step continuity errors : sum local = 2.34418e-06, global = -8.51522e-08, cumulative = 4.41442e-05
ExecutionTime = 4.95 s  ClockTime = 5 s

Time = 62

DILUPBiCGStab:  Solving for Ux, Initial residual = 0.00408735, Final residual = 1.49661e-05, No Iterations 1
DILUPBiCGStab:  Solving for Uy, Initial residual = 0.00833173, Final residual = 2.71818e-05, No Iterations 1
DILUPBiCGStab:  Solving for Uz, Initial residual = 0.00652254, Final residual = 2.48439e-05, No Iterations 1
DICPCG:  Solving for G, Initial residual = 0.000213734, Final residual = 2.13301e-05, No Iterations 17
DILUPBiCGStab:  Solving for h, Initial residual = 0.00165292, Final residual = 8.02226e-07, No Iterations 1
DICPCG:  Solving for p_rgh, Initial residual = 0.00632123, Final residual = 5.94214e-05, No Iterations 21
time step continuity errors : sum local = 2.35051e-06, global = 1.74412e-07, cumulative = 4.43186e-05
ExecutionTime = 5.04 s  ClockTime = 5 s

Time = 63

DILUPBiCGStab:  Solving for Ux, Initial residual = 0.0040142, Final residual = 1.4746e-05, No Iterations 1
DILUPBiCGStab:  Solving for Uy, Initial residual = 0.00819287, Final residual = 2.67265e-05, No Iterations 1
DILUPBiCGStab:  Solving for Uz, Initial residual = 0.00646703, Final residual = 2.46153e-05, No Iterations 1
DICPCG:  Solving for G, Initial residual = 0.000210767, Final residual = 2.01598e-05, No Iterations 18
DILUPBiCGStab:  Solving for h, Initial residual = 0.00162797, Final residual = 7.90494e-07, No Iterations 1
DICPCG:  Solving for p_rgh, Initial residual = 0.00619228, Final residual = 5.68186e-05, No Iterations 26
time step continuity errors : sum local = 2.23924e-06, global = 5.38845e-07, cumulative = 4.48575e-05
ExecutionTime = 5.11 s  ClockTime = 5 s

Time = 64

DILUPBiCGStab:  Solving for Ux, Initial residual = 0.00394223, Final residual = 1.45046e-05, No Iterations 1
DILUPBiCGStab:  Solving for Uy, Initial residual = 0.00806213, Final residual = 2.633e-05, No Iterations 1
DILUPBiCGStab:  Solving for Uz, Initial residual = 0.00641144, Final residual = 2.43726e-05, No Iterations 1
DICPCG:  Solving for G, Initial residual = 0.000206897, Final residual = 1.89019e-05, No Iterations 19
DILUPBiCGStab:  Solving for h, Initial residual = 0.00160406, Final residual = 7.79318e-07, No Iterations 1
DICPCG:  Solving for p_rgh, Initial residual = 0.00607339, Final residual = 5.53296e-05, No Iterations 52
time step continuity errors : sum local = 2.17287e-06, global = -1.6716e-08, cumulative = 4.48408e-05
ExecutionTime = 5.2 s  ClockTime = 5 s

Time = 65

DILUPBiCGStab:  Solving for Ux, Initial residual = 0.00388789, Final residual = 1.43465e-05, No Iterations 1
DILUPBiCGStab:  Solving for Uy, Initial residual = 0.0079401, Final residual = 2.58682e-05, No Iterations 1
DILUPBiCGStab:  Solving for Uz, Initial residual = 0.00634754, Final residual = 2.41207e-05, No Iterations 1
DICPCG:  Solving for G, Initial residual = 0.000204112, Final residual = 1.90355e-05, No Iterations 19
DILUPBiCGStab:  Solving for h, Initial residual = 0.00158115, Final residual = 7.68646e-07, No Iterations 1
DICPCG:  Solving for p_rgh, Initial residual = 0.00596722, Final residual = 5.26628e-05, No Iterations 19
time step continuity errors : sum local = 2.06126e-06, global = 6.05574e-08, cumulative = 4.49013e-05
ExecutionTime = 5.27 s  ClockTime = 5 s

Time = 66

DILUPBiCGStab:  Solving for Ux, Initial residual = 0.00381865, Final residual = 1.4193e-05, No Iterations 1
DILUPBiCGStab:  Solving for Uy, Initial residual = 0.00780463, Final residual = 2.53791e-05, No Iterations 1
DILUPBiCGStab:  Solving for Uz, Initial residual = 0.00629972, Final residual = 2.39331e-05, No Iterations 1
DICPCG:  Solving for G, Initial residual = 0.000201256, Final residual = 1.93299e-05, No Iterations 19
DILUPBiCGStab:  Solving for h, Initial residual = 0.00155921, Final residual = 7.58431e-07, No Iterations 1
DICPCG:  Solving for p_rgh, Initial residual = 0.00584584, Final residual = 5.78009e-05, No Iterations 21
time step continuity errors : sum local = 2.25502e-06, global = 5.03754e-08, cumulative = 4.49517e-05
ExecutionTime = 5.35 s  ClockTime = 5 s

Time = 67

DILUPBiCGStab:  Solving for Ux, Initial residual = 0.0037517, Final residual = 1.3981e-05, No Iterations 1
DILUPBiCGStab:  Solving for Uy, Initial residual = 0.00768007, Final residual = 2.4998e-05, No Iterations 1
DILUPBiCGStab:  Solving for Uz, Initial residual = 0.00624991, Final residual = 2.37149e-05, No Iterations 1
DICPCG:  Solving for G, Initial residual = 0.000198914, Final residual = 1.98167e-05, No Iterations 19
DILUPBiCGStab:  Solving for h, Initial residual = 0.00153817, Final residual = 7.48694e-07, No Iterations 1
DICPCG:  Solving for p_rgh, Initial residual = 0.0057255, Final residual = 5.69797e-05, No Iterations 25
time step continuity errors : sum local = 2.21612e-06, global = 2.19048e-07, cumulative = 4.51708e-05
ExecutionTime = 5.43 s  ClockTime = 5 s

Time = 68

DILUPBiCGStab:  Solving for Ux, Initial residual = 0.00369336, Final residual = 1.37801e-05, No Iterations 1
DILUPBiCGStab:  Solving for Uy, Initial residual = 0.00756611, Final residual = 2.46842e-05, No Iterations 1
DILUPBiCGStab:  Solving for Uz, Initial residual = 0.00619868, Final residual = 2.35066e-05, No Iterations 1
DICPCG:  Solving for G, Initial residual = 0.000196303, Final residual = 1.71867e-05, No Iterations 20
DILUPBiCGStab:  Solving for h, Initial residual = 0.00151796, Final residual = 7.39397e-07, No Iterations 1
DICPCG:  Solving for p_rgh, Initial residual = 0.00561543, Final residual = 5.48167e-05, No Iterations 20
time step continuity errors : sum local = 2.12567e-06, global = 5.34963e-07, cumulative = 4.57057e-05
ExecutionTime = 5.5 s  ClockTime = 5 s

Time = 69

DILUPBiCGStab:  Solving for Ux, Initial residual = 0.00364474, Final residual = 1.367e-05, No Iterations 1
DILUPBiCGStab:  Solving for Uy, Initial residual = 0.00744806, Final residual = 2.42392e-05, No Iterations 1
DILUPBiCGStab:  Solving for Uz, Initial residual = 0.006149, Final residual = 2.33378e-05, No Iterations 1
DICPCG:  Solving for G, Initial residual = 0.000194608, Final residual = 1.69145e-05, No Iterations 20
DILUPBiCGStab:  Solving for h, Initial residual = 0.00149857, Final residual = 7.3049e-07, No Iterations 1
DICPCG:  Solving for p_rgh, Initial residual = 0.00550414, Final residual = 5.43313e-05, No Iterations 60
time step continuity errors : sum local = 2.10079e-06, global = 1.17776e-08, cumulative = 4.57175e-05
ExecutionTime = 5.58 s  ClockTime = 5 s

Time = 70

DILUPBiCGStab:  Solving for Ux, Initial residual = 0.00359546, Final residual = 1.34734e-05, No Iterations 1
DILUPBiCGStab:  Solving for Uy, Initial residual = 0.00734435, Final residual = 2.38713e-05, No Iterations 1
DILUPBiCGStab:  Solving for Uz, Initial residual = 0.00608951, Final residual = 2.30808e-05, No Iterations 1
DICPCG:  Solving for G, Initial residual = 0.000192114, Final residual = 1.76275e-05, No Iterations 20
DILUPBiCGStab:  Solving for h, Initial residual = 0.00147997, Final residual = 7.21971e-07, No Iterations 1
DICPCG:  Solving for p_rgh, Initial residual = 0.00541614, Final residual = 4.75349e-05, No Iterations 20
time step continuity errors : sum local = 1.83284e-06, global = 4.60574e-08, cumulative = 4.57636e-05
ExecutionTime = 5.68 s  ClockTime = 6 s

Time = 71

DILUPBiCGStab:  Solving for Ux, Initial residual = 0.00353928, Final residual = 1.33398e-05, No Iterations 1
DILUPBiCGStab:  Solving for Uy, Initial residual = 0.00723102, Final residual = 2.34977e-05, No Iterations 1
DILUPBiCGStab:  Solving for Uz, Initial residual = 0.00604715, Final residual = 2.29226e-05, No Iterations 1
DICPCG:  Solving for G, Initial residual = 0.000190085, Final residual = 1.73694e-05, No Iterations 20
DILUPBiCGStab:  Solving for h, Initial residual = 0.00146212, Final residual = 7.13832e-07, No Iterations 1
DICPCG:  Solving for p_rgh, Initial residual = 0.00531083, Final residual = 5.03184e-05, No Iterations 24
time step continuity errors : sum local = 1.93485e-06, global = 4.3613e-08, cumulative = 4.58072e-05
ExecutionTime = 5.76 s  ClockTime = 6 s

Time = 72

DILUPBiCGStab:  Solving for Ux, Initial residual = 0.00348271, Final residual = 1.31686e-05, No Iterations 1
DILUPBiCGStab:  Solving for Uy, Initial residual = 0.00712425, Final residual = 2.31874e-05, No Iterations 1
DILUPBiCGStab:  Solving for Uz, Initial residual = 0.00600164, Final residual = 2.27324e-05, No Iterations 1
DICPCG:  Solving for G, Initial residual = 0.000187946, Final residual = 1.79158e-05, No Iterations 20
DILUPBiCGStab:  Solving for h, Initial residual = 0.00144494, Final residual = 7.06045e-07, No Iterations 1
DICPCG:  Solving for p_rgh, Initial residual = 0.00520731, Final residual = 5.16533e-05, No Iterations 24
time step continuity errors : sum local = 1.98089e-06, global = 2.25618e-07, cumulative = 4.60328e-05
ExecutionTime = 5.83 s  ClockTime = 6 s

Time = 73

DILUPBiCGStab:  Solving for Ux, Initial residual = 0.00343661, Final residual = 1.30395e-05, No Iterations 1
DILUPBiCGStab:  Solving for Uy, Initial residual = 0.00702112, Final residual = 2.28424e-05, No Iterations 1
DILUPBiCGStab:  Solving for Uz, Initial residual = 0.00595517, Final residual = 2.256e-05, No Iterations 1
DICPCG:  Solving for G, Initial residual = 0.000186083, Final residual = 1.80612e-05, No Iterations 20
DILUPBiCGStab:  Solving for h, Initial residual = 0.00142841, Final residual = 6.98623e-07, No Iterations 1
DICPCG:  Solving for p_rgh, Initial residual = 0.0051074, Final residual = 5.06178e-05, No Iterations 27
time step continuity errors : sum local = 1.93619e-06, global = 5.12946e-07, cumulative = 4.65457e-05
ExecutionTime = 5.91 s  ClockTime = 6 s

Time = 74

DILUPBiCGStab:  Solving for Ux, Initial residual = 0.00339402, Final residual = 1.29034e-05, No Iterations 1
DILUPBiCGStab:  Solving for Uy, Initial residual = 0.00692293, Final residual = 2.25205e-05, No Iterations 1
DILUPBiCGStab:  Solving for Uz, Initial residual = 0.00590867, Final residual = 2.23857e-05, No Iterations 1
DICPCG:  Solving for G, Initial residual = 0.000184223, Final residual = 1.60019e-05, No Iterations 21
DILUPBiCGStab:  Solving for h, Initial residual = 0.0014125, Final residual = 6.9152e-07, No Iterations 1
DICPCG:  Solving for p_rgh, Initial residual = 0.00501508, Final residual = 4.35557e-05, No Iterations 53
time step continuity errors : sum local = 1.6619e-06, global = -1.54894e-08, cumulative = 4.65302e-05
ExecutionTime = 5.98 s  ClockTime = 6 s

Time = 75

DILUPBiCGStab:  Solving for Ux, Initial residual = 0.00335793, Final residual = 1.27835e-05, No Iterations 1
DILUPBiCGStab:  Solving for Uy, Initial residual = 0.00683226, Final residual = 2.21703e-05, No Iterations 1
DILUPBiCGStab:  Solving for Uz, Initial residual = 0.00585565, Final residual = 2.2175e-05, No Iterations 1
DICPCG:  Solving for G, Initial residual = 0.000181335, Final residual = 1.55623e-05, No Iterations 21
DILUPBiCGStab:  Solving for h, Initial residual = 0.00139719, Final residual = 6.84732e-07, No Iterations 1
DICPCG:  Solving for p_rgh, Initial residual = 0.00493721, Final residual = 4.67358e-05, No Iterations 20
time step continuity errors : sum local = 1.77894e-06, global = 3.92264e-08, cumulative = 4.65695e-05
ExecutionTime = 6.07 s  ClockTime = 6 s

Time = 76

DILUPBiCGStab:  Solving for Ux, Initial residual = 0.00330796, Final residual = 1.26726e-05, No Iterations 1
DILUPBiCGStab:  Solving for Uy, Initial residual = 0.00673119, Final residual = 2.18246e-05, No Iterations 1
DILUPBiCGStab:  Solving for Uz, Initial residual = 0.00581681, Final residual = 2.2023e-05, No Iterations 1
DICPCG:  Solving for G, Initial residual = 0.000179154, Final residual = 1.60401e-05, No Iterations 21
DILUPBiCGStab:  Solving for h, Initial residual = 0.00138243, Final residual = 6.78255e-07, No Iterations 1
DICPCG:  Solving for p_rgh, Initial residual = 0.0048446, Final residual = 4.47171e-05, No Iterations 25
time step continuity errors : sum local = 1.69813e-06, global = 4.08194e-08, cumulative = 4.66103e-05
ExecutionTime = 6.13 s  ClockTime = 6 s

Time = 77

DILUPBiCGStab:  Solving for Ux, Initial residual = 0.00325845, Final residual = 1.25053e-05, No Iterations 1
DILUPBiCGStab:  Solving for Uy, Initial residual = 0.00664014, Final residual = 2.15862e-05, No Iterations 1
DILUPBiCGStab:  Solving for Uz, Initial residual = 0.00577505, Final residual = 2.18464e-05, No Iterations 1
DICPCG:  Solving for G, Initial residual = 0.000177559, Final residual = 1.59599e-05, No Iterations 21
DILUPBiCGStab:  Solving for h, Initial residual = 0.00136821, Final residual = 6.7207e-07, No Iterations 1
DICPCG:  Solving for p_rgh, Initial residual = 0.00475348, Final residual = 4.69376e-05, No Iterations 25
time step continuity errors : sum local = 1.77846e-06, global = 2.11719e-07, cumulative = 4.6822e-05
ExecutionTime = 6.21 s  ClockTime = 6 s

Time = 78

DILUPBiCGStab:  Solving for Ux, Initial residual = 0.00322297, Final residual = 1.2397e-05, No Iterations 1
DILUPBiCGStab:  Solving for Uy, Initial residual = 0.00655072, Final residual = 2.12923e-05, No Iterations 1
DILUPBiCGStab:  Solving for Uz, Initial residual = 0.0057331, Final residual = 2.16957e-05, No Iterations 1
DICPCG:  Solving for G, Initial residual = 0.000175785, Final residual = 1.59136e-05, No Iterations 21
DILUPBiCGStab:  Solving for h, Initial residual = 0.00135449, Final residual = 6.66161e-07, No Iterations 1
DICPCG:  Solving for p_rgh, Initial residual = 0.00466549, Final residual = 4.56941e-05, No Iterations 29
time step continuity errors : sum local = 1.72762e-06, global = 4.8095e-07, cumulative = 4.7303e-05
ExecutionTime = 6.28 s  ClockTime = 6 s

Time = 79

DILUPBiCGStab:  Solving for Ux, Initial residual = 0.00319163, Final residual = 1.22957e-05, No Iterations 1
DILUPBiCGStab:  Solving for Uy, Initial residual = 0.0064653, Final residual = 2.10066e-05, No Iterations 1
DILUPBiCGStab:  Solving for Uz, Initial residual = 0.00569002, Final residual = 2.15406e-05, No Iterations 1
DICPCG:  Solving for G, Initial residual = 0.000174258, Final residual = 1.57377e-05, No Iterations 21
DILUPBiCGStab:  Solving for h, Initial residual = 0.00134127, Final residual = 6.60512e-07, No Iterations 1
DICPCG:  Solving for p_rgh, Initial residual = 0.00458577, Final residual = 4.07434e-05, No Iterations 52
time step continuity errors : sum local = 1.53725e-06, global = -1.01682e-08, cumulative = 4.72928e-05
ExecutionTime = 6.36 s  ClockTime = 6 s

Time = 80

DILUPBiCGStab:  Solving for Ux, Initial residual = 0.00315711, Final residual = 1.21929e-05, No Iterations 1
DILUPBiCGStab:  Solving for Uy, Initial residual = 0.0063842, Final residual = 2.06959e-05, No Iterations 1
DILUPBiCGStab:  Solving for Uz, Initial residual = 0.00564247, Final residual = 2.13481e-05, No Iterations 1
DICPCG:  Solving for G, Initial residual = 0.000172821, Final residual = 1.61303e-05, No Iterations 21
DILUPBiCGStab:  Solving for h, Initial residual = 0.00132851, Final residual = 6.55089e-07, No Iterations 1
DICPCG:  Solving for p_rgh, Initial residual = 0.00451856, Final residual = 4.21868e-05, No Iterations 20
time step continuity errors : sum local = 1.58849e-06, global = 4.31408e-08, cumulative = 4.73359e-05
ExecutionTime = 6.44 s  ClockTime = 6 s

Time = 81

DILUPBiCGStab:  Solving for Ux, Initial residual = 0.00311607, Final residual = 1.20832e-05, No Iterations 1
DILUPBiCGStab:  Solving for Uy, Initial residual = 0.00629683, Final residual = 2.03815e-05, No Iterations 1
DILUPBiCGStab:  Solving for Uz, Initial residual = 0.00560583, Final residual = 2.12022e-05, No Iterations 1
DICPCG:  Solving for G, Initial residual = 0.000171498, Final residual = 1.60849e-05, No Iterations 21
DILUPBiCGStab:  Solving for h, Initial residual = 0.00131619, Final residual = 6.49895e-07, No Iterations 1
DICPCG:  Solving for p_rgh, Initial residual = 0.00443611, Final residual = 3.67108e-05, No Iterations 26
time step continuity errors : sum local = 1.37962e-06, global = 3.46354e-08, cumulative = 4.73706e-05
ExecutionTime = 6.52 s  ClockTime = 6 s

Time = 82

DILUPBiCGStab:  Solving for Ux, Initial residual = 0.00307761, Final residual = 1.19386e-05, No Iterations 1
DILUPBiCGStab:  Solving for Uy, Initial residual = 0.00621771, Final residual = 2.01864e-05, No Iterations 1
DILUPBiCGStab:  Solving for Uz, Initial residual = 0.00556666, Final residual = 2.1042e-05, No Iterations 1
DICPCG:  Solving for G, Initial residual = 0.000169941, Final residual = 1.6385e-05, No Iterations 21
DILUPBiCGStab:  Solving for h, Initial residual = 0.00130428, Final residual = 6.44925e-07, No Iterations 1
DICPCG:  Solving for p_rgh, Initial residual = 0.00435639, Final residual = 4.23375e-05, No Iterations 25
time step continuity errors : sum local = 1.58812e-06, global = 2.0321e-07, cumulative = 4.75738e-05
ExecutionTime = 6.59 s  ClockTime = 6 s

Time = 83

DILUPBiCGStab:  Solving for Ux, Initial residual = 0.00304857, Final residual = 1.18557e-05, No Iterations 1
DILUPBiCGStab:  Solving for Uy, Initial residual = 0.00613841, Final residual = 1.9921e-05, No Iterations 1
DILUPBiCGStab:  Solving for Uz, Initial residual = 0.0055285, Final residual = 2.09087e-05, No Iterations 1
DICPCG:  Solving for G, Initial residual = 0.000168697, Final residual = 1.57699e-05, No Iterations 21
DILUPBiCGStab:  Solving for h, Initial residual = 0.00129275, Final residual = 6.40171e-07, No Iterations 1
DICPCG:  Solving for p_rgh, Initial residual = 0.0042782, Final residual = 4.25549e-05, No Iterations 59
time step continuity errors : sum local = 1.59343e-06, global = 1.24989e-08, cumulative = 4.75863e-05
ExecutionTime = 6.68 s  ClockTime = 7 s

Time = 84

DILUPBiCGStab:  Solving for Ux, Initial residual = 0.00302357, Final residual = 1.177e-05, No Iterations 1
DILUPBiCGStab:  Solving for Uy, Initial residual = 0.00606516, Final residual = 1.96431e-05, No Iterations 1
DILUPBiCGStab:  Solving for Uz, Initial residual = 0.00548425, Final residual = 2.07429e-05, No Iterations 1
DICPCG:  Solving for G, Initial residual = 0.000167237, Final residual = 1.64366e-05, No Iterations 21
DILUPBiCGStab:  Solving for h, Initial residual = 0.00128161, Final residual = 6.35608e-07, No Iterations 1
DICPCG:  Solving for p_rgh, Initial residual = 0.00421534, Final residual = 3.81026e-05, No Iterations 25
time step continuity errors : sum local = 1.42424e-06, global = 1.95571e-07, cumulative = 4.77818e-05
ExecutionTime = 6.76 s  ClockTime = 7 s

Time = 85

DILUPBiCGStab:  Solving for Ux, Initial residual = 0.00298603, Final residual = 1.16625e-05, No Iterations 1
DILUPBiCGStab:  Solving for Uy, Initial residual = 0.00598864, Final residual = 1.94089e-05, No Iterations 1
DILUPBiCGStab:  Solving for Uz, Initial residual = 0.00544968, Final residual = 2.06061e-05, No Iterations 1
DICPCG:  Solving for G, Initial residual = 0.000166205, Final residual = 1.3467e-05, No Iterations 22
DILUPBiCGStab:  Solving for h, Initial residual = 0.00127082, Final residual = 6.31228e-07, No Iterations 1
DICPCG:  Solving for p_rgh, Initial residual = 0.00414088, Final residual = 3.98661e-05, No Iterations 26
time step continuity errors : sum local = 1.48769e-06, global = 3.85251e-07, cumulative = 4.81671e-05
ExecutionTime = 6.83 s  ClockTime = 7 s

Time = 86

DILUPBiCGStab:  Solving for Ux, Initial residual = 0.0029536, Final residual = 1.15632e-05, No Iterations 1
DILUPBiCGStab:  Solving for Uy, Initial residual = 0.00591538, Final residual = 1.91842e-05, No Iterations 1
DILUPBiCGStab:  Solving for Uz, Initial residual = 0.00541277, Final residual = 2.04649e-05, No Iterations 1
DICPCG:  Solving for G, Initial residual = 0.000164646, Final residual = 1.34736e-05, No Iterations 22
DILUPBiCGStab:  Solving for h, Initial residual = 0.00126036, Final residual = 6.27042e-07, No Iterations 1
DICPCG:  Solving for p_rgh, Initial residual = 0.00406933, Final residual = 4.0332e-05, No Iterations 61
time step continuity errors : sum local = 1.50269e-06, global = 7.62623e-09, cumulative = 4.81747e-05
ExecutionTime = 6.91 s  ClockTime = 7 s

Time = 87

DILUPBiCGStab:  Solving for Ux, Initial residual = 0.00293081, Final residual = 1.14795e-05, No Iterations 1
DILUPBiCGStab:  Solving for Uy, Initial residual = 0.00584815, Final residual = 1.89342e-05, No Iterations 1
DILUPBiCGStab:  Solving for Uz, Initial residual = 0.00536824, Final residual = 2.02942e-05, No Iterations 1
DICPCG:  Solving for G, Initial residual = 0.000163246, Final residual = 1.34451e-05, No Iterations 22
DILUPBiCGStab:  Solving for h, Initial residual = 0.00125023, Final residual = 6.2305e-07, No Iterations 1
DICPCG:  Solving for p_rgh, Initial residual = 0.0040135, Final residual = 3.91307e-05, No Iterations 24
time step continuity errors : sum local = 1.45568e-06, global = 8.36142e-08, cumulative = 4.82583e-05
ExecutionTime = 6.99 s  ClockTime = 7 s

Time = 88

DILUPBiCGStab:  Solving for Ux, Initial residual = 0.0029003, Final residual = 1.13847e-05, No Iterations 1
DILUPBiCGStab:  Solving for Uy, Initial residual = 0.00577763, Final residual = 1.87053e-05, No Iterations 1
DILUPBiCGStab:  Solving for Uz, Initial residual = 0.00533506, Final residual = 2.01681e-05, No Iterations 1
DICPCG:  Solving for G, Initial residual = 0.000162184, Final residual = 1.35954e-05, No Iterations 22
DILUPBiCGStab:  Solving for h, Initial residual = 0.00124042, Final residual = 6.19213e-07, No Iterations 1
DICPCG:  Solving for p_rgh, Initial residual = 0.00394456, Final residual = 3.20184e-05, No Iterations 26
time step continuity errors : sum local = 1.18933e-06, global = 1.44165e-07, cumulative = 4.84025e-05
ExecutionTime = 7.06 s  ClockTime = 7 s

Time = 89

DILUPBiCGStab:  Solving for Ux, Initial residual = 0.00287181, Final residual = 1.1293e-05, No Iterations 1
DILUPBiCGStab:  Solving for Uy, Initial residual = 0.0057096, Final residual = 1.85029e-05, No Iterations 1
DILUPBiCGStab:  Solving for Uz, Initial residual = 0.00529967, Final residual = 2.0037e-05, No Iterations 1
DICPCG:  Solving for G, Initial residual = 0.000161048, Final residual = 1.33305e-05, No Iterations 22
DILUPBiCGStab:  Solving for h, Initial residual = 0.00123089, Final residual = 6.15529e-07, No Iterations 1
DICPCG:  Solving for p_rgh, Initial residual = 0.00387613, Final residual = 3.48594e-05, No Iterations 27
time step continuity errors : sum local = 1.29301e-06, global = 3.60029e-07, cumulative = 4.87625e-05
ExecutionTime = 7.14 s  ClockTime = 7 s

Time = 90

DILUPBiCGStab:  Solving for Ux, Initial residual = 0.00284671, Final residual = 1.12122e-05, No Iterations 1
DILUPBiCGStab:  Solving for Uy, Initial residual = 0.00564293, Final residual = 1.82878e-05, No Iterations 1
DILUPBiCGStab:  Solving for Uz, Initial residual = 0.0052637, Final residual = 1.99046e-05, No Iterations 1
DICPCG:  Solving for G, Initial residual = 0.000159944, Final residual = 1.32405e-05, No Iterations 22
DILUPBiCGStab:  Solving for h, Initial residual = 0.00122164, Final residual = 6.11985e-07, No Iterations 1
DICPCG:  Solving for p_rgh, Initial residual = 0.0038128, Final residual = 3.64768e-05, No Iterations 55
time step continuity errors : sum local = 1.35115e-06, global = -5.41757e-09, cumulative = 4.87571e-05
ExecutionTime = 7.23 s  ClockTime = 7 s

Time = 91

DILUPBiCGStab:  Solving for Ux, Initial residual = 0.00282724, Final residual = 1.11292e-05, No Iterations 1
DILUPBiCGStab:  Solving for Uy, Initial residual = 0.00558252, Final residual = 1.80506e-05, No Iterations 1
DILUPBiCGStab:  Solving for Uz, Initial residual = 0.00522139, Final residual = 1.97405e-05, No Iterations 1
DICPCG:  Solving for G, Initial residual = 0.000158911, Final residual = 1.34037e-05, No Iterations 22
DILUPBiCGStab:  Solving for h, Initial residual = 0.00121266, Final residual = 6.08583e-07, No Iterations 1
DICPCG:  Solving for p_rgh, Initial residual = 0.00376225, Final residual = 3.57066e-05, No Iterations 25
time step continuity errors : sum local = 1.32084e-06, global = 1.13401e-07, cumulative = 4.88705e-05
ExecutionTime = 7.3 s  ClockTime = 7 s

Time = 92

DILUPBiCGStab:  Solving for Ux, Initial residual = 0.00279523, Final residual = 1.10471e-05, No Iterations 1
DILUPBiCGStab:  Solving for Uy, Initial residual = 0.00551666, Final residual = 1.7853e-05, No Iterations 1
DILUPBiCGStab:  Solving for Uz, Initial residual = 0.00518933, Final residual = 1.96202e-05, No Iterations 1
DICPCG:  Solving for G, Initial residual = 0.000157945, Final residual = 1.32619e-05, No Iterations 22
DILUPBiCGStab:  Solving for h, Initial residual = 0.00120393, Final residual = 6.05329e-07, No Iterations 1
DICPCG:  Solving for p_rgh, Initial residual = 0.00370014, Final residual = 3.05638e-05, No Iterations 26
time step continuity errors : sum local = 1.12914e-06, global = 1.99324e-07, cumulative = 4.90698e-05
ExecutionTime = 7.39 s  ClockTime = 7 s

Time = 93

DILUPBiCGStab:  Solving for Ux, Initial residual = 0.0027699, Final residual = 1.09683e-05, No Iterations 1
DILUPBiCGStab:  Solving for Uy, Initial residual = 0.00545455, Final residual = 1.76625e-05, No Iterations 1
DILUPBiCGStab:  Solving for Uz, Initial residual = 0.00515527, Final residual = 1.94985e-05, No Iterations 1
DICPCG:  Solving for G, Initial residual = 0.000157037, Final residual = 1.36336e-05, No Iterations 22
DILUPBiCGStab:  Solving for h, Initial residual = 0.00119546, Final residual = 6.02236e-07, No Iterations 1
DICPCG:  Solving for p_rgh, Initial residual = 0.00363767, Final residual = 3.38748e-05, No Iterations 62
time step continuity errors : sum local = 1.24992e-06, global = 1.08749e-08, cumulative = 4.90807e-05
ExecutionTime = 7.47 s  ClockTime = 7 s

Time = 94

DILUPBiCGStab:  Solving for Ux, Initial residual = 0.00275214, Final residual = 1.08984e-05, No Iterations 1
DILUPBiCGStab:  Solving for Uy, Initial residual = 0.00539689, Final residual = 1.74604e-05, No Iterations 1
DILUPBiCGStab:  Solving for Uz, Initial residual = 0.00511576, Final residual = 1.93508e-05, No Iterations 1
DICPCG:  Solving for G, Initial residual = 0.000156115, Final residual = 1.35085e-05, No Iterations 22
DILUPBiCGStab:  Solving for h, Initial residual = 0.00118723, Final residual = 5.99273e-07, No Iterations 1
DICPCG:  Solving for p_rgh, Initial residual = 0.00358766, Final residual = 3.33205e-05, No Iterations 25
time step continuity errors : sum local = 1.228e-06, global = 1.64497e-07, cumulative = 4.92452e-05
ExecutionTime = 7.56 s  ClockTime = 7 s

Time = 95

DILUPBiCGStab:  Solving for Ux, Initial residual = 0.00272766, Final residual = 1.08154e-05, No Iterations 1
DILUPBiCGStab:  Solving for Uy, Initial residual = 0.00533691, Final residual = 1.72596e-05, No Iterations 1
DILUPBiCGStab:  Solving for Uz, Initial residual = 0.00508368, Final residual = 1.92327e-05, No Iterations 1
DICPCG:  Solving for G, Initial residual = 0.000155222, Final residual = 1.35771e-05, No Iterations 22
DILUPBiCGStab:  Solving for h, Initial residual = 0.00117924, Final residual = 5.96423e-07, No Iterations 1
DICPCG:  Solving for p_rgh, Initial residual = 0.00352927, Final residual = 3.17976e-05, No Iterations 27
time step continuity errors : sum local = 1.17054e-06, global = 3.43774e-07, cumulative = 4.9589e-05
ExecutionTime = 7.64 s  ClockTime = 8 s

Time = 96

DILUPBiCGStab:  Solving for Ux, Initial residual = 0.0027055, Final residual = 1.07464e-05, No Iterations 1
DILUPBiCGStab:  Solving for Uy, Initial residual = 0.00527897, Final residual = 1.70854e-05, No Iterations 1
DILUPBiCGStab:  Solving for Uz, Initial residual = 0.00504959, Final residual = 1.91102e-05, No Iterations 1
DICPCG:  Solving for G, Initial residual = 0.000154335, Final residual = 1.33857e-05, No Iterations 22
DILUPBiCGStab:  Solving for h, Initial residual = 0.00117146, Final residual = 5.93689e-07, No Iterations 1
DICPCG:  Solving for p_rgh, Initial residual = 0.00347497, Final residual = 3.45135e-05, No Iterations 57
time step continuity errors : sum local = 1.26915e-06, global = -5.44624e-10, cumulative = 4.95884e-05
ExecutionTime = 7.74 s  ClockTime = 8 s

Time = 97

DILUPBiCGStab:  Solving for Ux, Initial residual = 0.00268932, Final residual = 1.06797e-05, No Iterations 1
DILUPBiCGStab:  Solving for Uy, Initial residual = 0.00522592, Final residual = 1.68825e-05, No Iterations 1
DILUPBiCGStab:  Solving for Uz, Initial residual = 0.00500909, Final residual = 1.8957e-05, No Iterations 1
DICPCG:  Solving for G, Initial residual = 0.000153447, Final residual = 1.34827e-05, No Iterations 22
DILUPBiCGStab:  Solving for h, Initial residual = 0.00116389, Final residual = 5.91075e-07, No Iterations 1
DICPCG:  Solving for p_rgh, Initial residual = 0.00343246, Final residual = 3.35061e-05, No Iterations 25
[...]
DILUPBiCGStab:  Solving for Uz, Initial residual = 4.10064e-05, Final residual = 1.42459e-07, No Iterations 1
DICPCG:  Solving for G, Initial residual = 7.87967e-05, Final residual = 6.81474e-06, No Iterations 25
DILUPBiCGStab:  Solving for h, Initial residual = 0.000299069, Final residual = 1.95243e-07, No Iterations 1
DICPCG:  Solving for p_rgh, Initial residual = 7.72472e-05, Final residual = 9.25424e-07, No Iterations 63
time step continuity errors : sum local = 4.91621e-08, global = 1.86721e-10, cumulative = 7.52052e-05
ExecutionTime = 460.13 s  ClockTime = 464 s

Time = 4977

DILUPBiCGStab:  Solving for Ux, Initial residual = 0.000132866, Final residual = 4.67164e-07, No Iterations 1
DILUPBiCGStab:  Solving for Uy, Initial residual = 2.85226e-05, Final residual = 1.0104e-07, No Iterations 1
DILUPBiCGStab:  Solving for Uz, Initial residual = 4.10044e-05, Final residual = 1.42454e-07, No Iterations 1
DICPCG:  Solving for G, Initial residual = 7.8793e-05, Final residual = 6.85526e-06, No Iterations 25
DILUPBiCGStab:  Solving for h, Initial residual = 0.000299044, Final residual = 1.95227e-07, No Iterations 1
DICPCG:  Solving for p_rgh, Initial residual = 7.72426e-05, Final residual = 9.25406e-07, No Iterations 63
time step continuity errors : sum local = 4.91622e-08, global = 1.86693e-10, cumulative = 7.52054e-05
ExecutionTime = 460.22 s  ClockTime = 464 s

Time = 4978

DILUPBiCGStab:  Solving for Ux, Initial residual = 0.000132853, Final residual = 4.67124e-07, No Iterations 1
DILUPBiCGStab:  Solving for Uy, Initial residual = 2.85219e-05, Final residual = 1.01039e-07, No Iterations 1
DILUPBiCGStab:  Solving for Uz, Initial residual = 4.10024e-05, Final residual = 1.42449e-07, No Iterations 1
DICPCG:  Solving for G, Initial residual = 7.87865e-05, Final residual = 6.81459e-06, No Iterations 25
DILUPBiCGStab:  Solving for h, Initial residual = 0.00029902, Final residual = 1.95211e-07, No Iterations 1
DICPCG:  Solving for p_rgh, Initial residual = 7.72376e-05, Final residual = 9.25383e-07, No Iterations 63
time step continuity errors : sum local = 4.9162e-08, global = 1.86663e-10, cumulative = 7.52056e-05
ExecutionTime = 460.31 s  ClockTime = 464 s

Time = 4979

DILUPBiCGStab:  Solving for Ux, Initial residual = 0.000132841, Final residual = 4.67081e-07, No Iterations 1
DILUPBiCGStab:  Solving for Uy, Initial residual = 2.85212e-05, Final residual = 1.01035e-07, No Iterations 1
DILUPBiCGStab:  Solving for Uz, Initial residual = 4.10003e-05, Final residual = 1.42444e-07, No Iterations 1
DICPCG:  Solving for G, Initial residual = 7.87831e-05, Final residual = 6.84879e-06, No Iterations 25
DILUPBiCGStab:  Solving for h, Initial residual = 0.000298995, Final residual = 1.95195e-07, No Iterations 1
DICPCG:  Solving for p_rgh, Initial residual = 7.72324e-05, Final residual = 9.25364e-07, No Iterations 63
time step continuity errors : sum local = 4.9162e-08, global = 1.86634e-10, cumulative = 7.52058e-05
ExecutionTime = 460.39 s  ClockTime = 464 s

Time = 4980

DILUPBiCGStab:  Solving for Ux, Initial residual = 0.000132828, Final residual = 4.67037e-07, No Iterations 1
DILUPBiCGStab:  Solving for Uy, Initial residual = 2.85205e-05, Final residual = 1.01032e-07, No Iterations 1
DILUPBiCGStab:  Solving for Uz, Initial residual = 4.09983e-05, Final residual = 1.42439e-07, No Iterations 1
DICPCG:  Solving for G, Initial residual = 7.87762e-05, Final residual = 6.81413e-06, No Iterations 25
DILUPBiCGStab:  Solving for h, Initial residual = 0.000298971, Final residual = 1.95179e-07, No Iterations 1
DICPCG:  Solving for p_rgh, Initial residual = 7.72269e-05, Final residual = 9.25354e-07, No Iterations 63
time step continuity errors : sum local = 4.91625e-08, global = 1.86618e-10, cumulative = 7.5206e-05
ExecutionTime = 460.49 s  ClockTime = 465 s

Time = 4981

DILUPBiCGStab:  Solving for Ux, Initial residual = 0.000132815, Final residual = 4.66996e-07, No Iterations 1
DILUPBiCGStab:  Solving for Uy, Initial residual = 2.85198e-05, Final residual = 1.01031e-07, No Iterations 1
DILUPBiCGStab:  Solving for Uz, Initial residual = 4.09963e-05, Final residual = 1.42433e-07, No Iterations 1
DICPCG:  Solving for G, Initial residual = 7.87731e-05, Final residual = 6.84182e-06, No Iterations 25
DILUPBiCGStab:  Solving for h, Initial residual = 0.000298946, Final residual = 1.95163e-07, No Iterations 1
DICPCG:  Solving for p_rgh, Initial residual = 7.72217e-05, Final residual = 9.25339e-07, No Iterations 63
time step continuity errors : sum local = 4.91627e-08, global = 1.86589e-10, cumulative = 7.52062e-05
ExecutionTime = 460.59 s  ClockTime = 465 s

Time = 4982

DILUPBiCGStab:  Solving for Ux, Initial residual = 0.000132803, Final residual = 4.66955e-07, No Iterations 1
DILUPBiCGStab:  Solving for Uy, Initial residual = 2.85191e-05, Final residual = 1.0103e-07, No Iterations 1
DILUPBiCGStab:  Solving for Uz, Initial residual = 4.09942e-05, Final residual = 1.42428e-07, No Iterations 1
DICPCG:  Solving for G, Initial residual = 7.87656e-05, Final residual = 6.8134e-06, No Iterations 25
DILUPBiCGStab:  Solving for h, Initial residual = 0.000298922, Final residual = 1.95147e-07, No Iterations 1
DICPCG:  Solving for p_rgh, Initial residual = 7.7216e-05, Final residual = 9.2531e-07, No Iterations 63
time step continuity errors : sum local = 4.91622e-08, global = 1.86559e-10, cumulative = 7.52064e-05
ExecutionTime = 460.68 s  ClockTime = 465 s

Time = 4983

DILUPBiCGStab:  Solving for Ux, Initial residual = 0.00013279, Final residual = 4.66914e-07, No Iterations 1
DILUPBiCGStab:  Solving for Uy, Initial residual = 2.85183e-05, Final residual = 1.01028e-07, No Iterations 1
DILUPBiCGStab:  Solving for Uz, Initial residual = 4.09922e-05, Final residual = 1.42422e-07, No Iterations 1
DICPCG:  Solving for G, Initial residual = 7.87629e-05, Final residual = 6.83426e-06, No Iterations 25
DILUPBiCGStab:  Solving for h, Initial residual = 0.000298897, Final residual = 1.95131e-07, No Iterations 1
DICPCG:  Solving for p_rgh, Initial residual = 7.72106e-05, Final residual = 9.25275e-07, No Iterations 63
time step continuity errors : sum local = 4.91614e-08, global = 1.86528e-10, cumulative = 7.52065e-05
ExecutionTime = 460.78 s  ClockTime = 465 s

Time = 4984

DILUPBiCGStab:  Solving for Ux, Initial residual = 0.000132778, Final residual = 4.66873e-07, No Iterations 1
DILUPBiCGStab:  Solving for Uy, Initial residual = 2.85176e-05, Final residual = 1.01026e-07, No Iterations 1
DILUPBiCGStab:  Solving for Uz, Initial residual = 4.09901e-05, Final residual = 1.42417e-07, No Iterations 1
DICPCG:  Solving for G, Initial residual = 7.87549e-05, Final residual = 6.81243e-06, No Iterations 25
DILUPBiCGStab:  Solving for h, Initial residual = 0.000298873, Final residual = 1.95115e-07, No Iterations 1
DICPCG:  Solving for p_rgh, Initial residual = 7.72063e-05, Final residual = 9.25236e-07, No Iterations 63
time step continuity errors : sum local = 4.91604e-08, global = 1.86496e-10, cumulative = 7.52067e-05
ExecutionTime = 460.87 s  ClockTime = 465 s

Time = 4985

DILUPBiCGStab:  Solving for Ux, Initial residual = 0.000132765, Final residual = 4.66832e-07, No Iterations 1
DILUPBiCGStab:  Solving for Uy, Initial residual = 2.85169e-05, Final residual = 1.01024e-07, No Iterations 1
DILUPBiCGStab:  Solving for Uz, Initial residual = 4.09881e-05, Final residual = 1.42412e-07, No Iterations 1
DICPCG:  Solving for G, Initial residual = 7.87527e-05, Final residual = 6.82603e-06, No Iterations 25
DILUPBiCGStab:  Solving for h, Initial residual = 0.000298848, Final residual = 1.95099e-07, No Iterations 1
DICPCG:  Solving for p_rgh, Initial residual = 7.72026e-05, Final residual = 9.25209e-07, No Iterations 63
time step continuity errors : sum local = 4.916e-08, global = 1.86464e-10, cumulative = 7.52069e-05
ExecutionTime = 460.95 s  ClockTime = 465 s

Time = 4986

DILUPBiCGStab:  Solving for Ux, Initial residual = 0.000132752, Final residual = 4.66792e-07, No Iterations 1
DILUPBiCGStab:  Solving for Uy, Initial residual = 2.85162e-05, Final residual = 1.01022e-07, No Iterations 1
DILUPBiCGStab:  Solving for Uz, Initial residual = 4.09861e-05, Final residual = 1.42407e-07, No Iterations 1
DICPCG:  Solving for G, Initial residual = 7.8744e-05, Final residual = 6.81112e-06, No Iterations 25
DILUPBiCGStab:  Solving for h, Initial residual = 0.000298824, Final residual = 1.95083e-07, No Iterations 1
DICPCG:  Solving for p_rgh, Initial residual = 7.71979e-05, Final residual = 9.25197e-07, No Iterations 63
time step continuity errors : sum local = 4.91603e-08, global = 1.86439e-10, cumulative = 7.52071e-05
ExecutionTime = 461.05 s  ClockTime = 465 s

Time = 4987

DILUPBiCGStab:  Solving for Ux, Initial residual = 0.00013274, Final residual = 4.66751e-07, No Iterations 1
DILUPBiCGStab:  Solving for Uy, Initial residual = 2.85155e-05, Final residual = 1.01019e-07, No Iterations 1
DILUPBiCGStab:  Solving for Uz, Initial residual = 4.0984e-05, Final residual = 1.42402e-07, No Iterations 1
DICPCG:  Solving for G, Initial residual = 7.87424e-05, Final residual = 6.81703e-06, No Iterations 25
DILUPBiCGStab:  Solving for h, Initial residual = 0.000298799, Final residual = 1.95067e-07, No Iterations 1
DICPCG:  Solving for p_rgh, Initial residual = 7.71938e-05, Final residual = 9.25177e-07, No Iterations 63
time step continuity errors : sum local = 4.91603e-08, global = 1.86414e-10, cumulative = 7.52073e-05
ExecutionTime = 461.14 s  ClockTime = 465 s

Time = 4988

DILUPBiCGStab:  Solving for Ux, Initial residual = 0.000132727, Final residual = 4.66709e-07, No Iterations 1
DILUPBiCGStab:  Solving for Uy, Initial residual = 2.85148e-05, Final residual = 1.01017e-07, No Iterations 1
DILUPBiCGStab:  Solving for Uz, Initial residual = 4.0982e-05, Final residual = 1.42395e-07, No Iterations 1
DICPCG:  Solving for G, Initial residual = 7.8733e-05, Final residual = 6.80957e-06, No Iterations 25
DILUPBiCGStab:  Solving for h, Initial residual = 0.000298775, Final residual = 1.95051e-07, No Iterations 1
DICPCG:  Solving for p_rgh, Initial residual = 7.71973e-05, Final residual = 9.25147e-07, No Iterations 63
time step continuity errors : sum local = 4.91598e-08, global = 1.86407e-10, cumulative = 7.52075e-05
ExecutionTime = 461.23 s  ClockTime = 465 s

Time = 4989

DILUPBiCGStab:  Solving for Ux, Initial residual = 0.000132714, Final residual = 4.66667e-07, No Iterations 1
DILUPBiCGStab:  Solving for Uy, Initial residual = 2.85141e-05, Final residual = 1.01015e-07, No Iterations 1
DILUPBiCGStab:  Solving for Uz, Initial residual = 4.09799e-05, Final residual = 1.4239e-07, No Iterations 1
DICPCG:  Solving for G, Initial residual = 7.87321e-05, Final residual = 6.80707e-06, No Iterations 25
DILUPBiCGStab:  Solving for h, Initial residual = 0.00029875, Final residual = 1.95035e-07, No Iterations 1
DICPCG:  Solving for p_rgh, Initial residual = 7.71967e-05, Final residual = 9.25124e-07, No Iterations 63
time step continuity errors : sum local = 4.91596e-08, global = 1.86396e-10, cumulative = 7.52077e-05
ExecutionTime = 461.32 s  ClockTime = 465 s

Time = 4990

DILUPBiCGStab:  Solving for Ux, Initial residual = 0.000132701, Final residual = 4.66626e-07, No Iterations 1
DILUPBiCGStab:  Solving for Uy, Initial residual = 2.85134e-05, Final residual = 1.01013e-07, No Iterations 1
DILUPBiCGStab:  Solving for Uz, Initial residual = 4.09779e-05, Final residual = 1.42387e-07, No Iterations 1
DICPCG:  Solving for G, Initial residual = 7.87218e-05, Final residual = 6.80774e-06, No Iterations 25
DILUPBiCGStab:  Solving for h, Initial residual = 0.000298726, Final residual = 1.95019e-07, No Iterations 1
DICPCG:  Solving for p_rgh, Initial residual = 7.71925e-05, Final residual = 9.25122e-07, No Iterations 63
time step continuity errors : sum local = 4.91605e-08, global = 1.86384e-10, cumulative = 7.52078e-05
ExecutionTime = 461.43 s  ClockTime = 465 s

Time = 4991

DILUPBiCGStab:  Solving for Ux, Initial residual = 0.000132688, Final residual = 4.66585e-07, No Iterations 1
DILUPBiCGStab:  Solving for Uy, Initial residual = 2.85127e-05, Final residual = 1.0101e-07, No Iterations 1
DILUPBiCGStab:  Solving for Uz, Initial residual = 4.09758e-05, Final residual = 1.42384e-07, No Iterations 1
DICPCG:  Solving for G, Initial residual = 7.87218e-05, Final residual = 6.79608e-06, No Iterations 25
DILUPBiCGStab:  Solving for h, Initial residual = 0.000298701, Final residual = 1.95003e-07, No Iterations 1
DICPCG:  Solving for p_rgh, Initial residual = 7.71875e-05, Final residual = 9.25112e-07, No Iterations 63
time step continuity errors : sum local = 4.9161e-08, global = 1.86367e-10, cumulative = 7.5208e-05
ExecutionTime = 461.52 s  ClockTime = 466 s

Time = 4992

DILUPBiCGStab:  Solving for Ux, Initial residual = 0.000132675, Final residual = 4.66544e-07, No Iterations 1
DILUPBiCGStab:  Solving for Uy, Initial residual = 2.8512e-05, Final residual = 1.01008e-07, No Iterations 1
DILUPBiCGStab:  Solving for Uz, Initial residual = 4.09736e-05, Final residual = 1.42379e-07, No Iterations 1
DICPCG:  Solving for G, Initial residual = 7.87104e-05, Final residual = 6.80571e-06, No Iterations 25
DILUPBiCGStab:  Solving for h, Initial residual = 0.000298676, Final residual = 1.94987e-07, No Iterations 1
DICPCG:  Solving for p_rgh, Initial residual = 7.71827e-05, Final residual = 9.25087e-07, No Iterations 63
time step continuity errors : sum local = 4.91607e-08, global = 1.86361e-10, cumulative = 7.52082e-05
ExecutionTime = 461.62 s  ClockTime = 466 s

Time = 4993

DILUPBiCGStab:  Solving for Ux, Initial residual = 0.000132662, Final residual = 4.66503e-07, No Iterations 1
DILUPBiCGStab:  Solving for Uy, Initial residual = 2.85112e-05, Final residual = 1.01006e-07, No Iterations 1
DILUPBiCGStab:  Solving for Uz, Initial residual = 4.09714e-05, Final residual = 1.42374e-07, No Iterations 1
DICPCG:  Solving for G, Initial residual = 7.87113e-05, Final residual = 6.78389e-06, No Iterations 25
DILUPBiCGStab:  Solving for h, Initial residual = 0.000298652, Final residual = 1.94971e-07, No Iterations 1
DICPCG:  Solving for p_rgh, Initial residual = 7.71775e-05, Final residual = 9.25057e-07, No Iterations 63
time step continuity errors : sum local = 4.91601e-08, global = 1.86348e-10, cumulative = 7.52084e-05
ExecutionTime = 461.71 s  ClockTime = 466 s

Time = 4994

DILUPBiCGStab:  Solving for Ux, Initial residual = 0.000132649, Final residual = 4.66462e-07, No Iterations 1
DILUPBiCGStab:  Solving for Uy, Initial residual = 2.85104e-05, Final residual = 1.01006e-07, No Iterations 1
DILUPBiCGStab:  Solving for Uz, Initial residual = 4.09693e-05, Final residual = 1.42368e-07, No Iterations 1
DICPCG:  Solving for G, Initial residual = 7.86988e-05, Final residual = 6.80355e-06, No Iterations 25
DILUPBiCGStab:  Solving for h, Initial residual = 0.000298627, Final residual = 1.94955e-07, No Iterations 1
DICPCG:  Solving for p_rgh, Initial residual = 7.71719e-05, Final residual = 9.25008e-07, No Iterations 63
time step continuity errors : sum local = 4.91586e-08, global = 1.86327e-10, cumulative = 7.52086e-05
ExecutionTime = 461.81 s  ClockTime = 466 s

Time = 4995

DILUPBiCGStab:  Solving for Ux, Initial residual = 0.000132636, Final residual = 4.66421e-07, No Iterations 1
DILUPBiCGStab:  Solving for Uy, Initial residual = 2.85096e-05, Final residual = 1.01005e-07, No Iterations 1
DILUPBiCGStab:  Solving for Uz, Initial residual = 4.09671e-05, Final residual = 1.42363e-07, No Iterations 1
DICPCG:  Solving for G, Initial residual = 7.87008e-05, Final residual = 6.77009e-06, No Iterations 25
DILUPBiCGStab:  Solving for h, Initial residual = 0.000298603, Final residual = 1.94938e-07, No Iterations 1
DICPCG:  Solving for p_rgh, Initial residual = 7.71663e-05, Final residual = 9.24975e-07, No Iterations 63
time step continuity errors : sum local = 4.91579e-08, global = 1.86301e-10, cumulative = 7.52088e-05
ExecutionTime = 461.9 s  ClockTime = 466 s

Time = 4996

DILUPBiCGStab:  Solving for Ux, Initial residual = 0.000132623, Final residual = 4.6638e-07, No Iterations 1
DILUPBiCGStab:  Solving for Uy, Initial residual = 2.85088e-05, Final residual = 1.01004e-07, No Iterations 1
DILUPBiCGStab:  Solving for Uz, Initial residual = 4.09649e-05, Final residual = 1.42357e-07, No Iterations 1
DICPCG:  Solving for G, Initial residual = 7.86868e-05, Final residual = 6.80147e-06, No Iterations 25
DILUPBiCGStab:  Solving for h, Initial residual = 0.000298578, Final residual = 1.94922e-07, No Iterations 1
DICPCG:  Solving for p_rgh, Initial residual = 7.71619e-05, Final residual = 9.24952e-07, No Iterations 63
time step continuity errors : sum local = 4.91577e-08, global = 1.86276e-10, cumulative = 7.5209e-05
ExecutionTime = 461.99 s  ClockTime = 466 s

Time = 4997

DILUPBiCGStab:  Solving for Ux, Initial residual = 0.00013261, Final residual = 4.66338e-07, No Iterations 1
DILUPBiCGStab:  Solving for Uy, Initial residual = 2.8508e-05, Final residual = 1.01002e-07, No Iterations 1
DILUPBiCGStab:  Solving for Uz, Initial residual = 4.09627e-05, Final residual = 1.42351e-07, No Iterations 1
DICPCG:  Solving for G, Initial residual = 7.86902e-05, Final residual = 6.75427e-06, No Iterations 25
DILUPBiCGStab:  Solving for h, Initial residual = 0.000298554, Final residual = 1.94906e-07, No Iterations 1
DICPCG:  Solving for p_rgh, Initial residual = 7.71573e-05, Final residual = 9.24934e-07, No Iterations 63
time step continuity errors : sum local = 4.91578e-08, global = 1.86253e-10, cumulative = 7.52091e-05
ExecutionTime = 462.09 s  ClockTime = 466 s

Time = 4998

DILUPBiCGStab:  Solving for Ux, Initial residual = 0.000132597, Final residual = 4.66296e-07, No Iterations 1
DILUPBiCGStab:  Solving for Uy, Initial residual = 2.85072e-05, Final residual = 1.01001e-07, No Iterations 1
DILUPBiCGStab:  Solving for Uz, Initial residual = 4.09605e-05, Final residual = 1.42345e-07, No Iterations 1
DICPCG:  Solving for G, Initial residual = 7.86744e-05, Final residual = 6.79949e-06, No Iterations 25
DILUPBiCGStab:  Solving for h, Initial residual = 0.000298529, Final residual = 1.9489e-07, No Iterations 1
DICPCG:  Solving for p_rgh, Initial residual = 7.71522e-05, Final residual = 9.24909e-07, No Iterations 63
time step continuity errors : sum local = 4.91575e-08, global = 1.86225e-10, cumulative = 7.52093e-05
ExecutionTime = 462.18 s  ClockTime = 466 s

Time = 4999

DILUPBiCGStab:  Solving for Ux, Initial residual = 0.000132584, Final residual = 4.66254e-07, No Iterations 1
DILUPBiCGStab:  Solving for Uy, Initial residual = 2.85064e-05, Final residual = 1.01e-07, No Iterations 1
DILUPBiCGStab:  Solving for Uz, Initial residual = 4.09576e-05, Final residual = 1.42337e-07, No Iterations 1
DICPCG:  Solving for G, Initial residual = 7.86796e-05, Final residual = 6.73557e-06, No Iterations 25
DILUPBiCGStab:  Solving for h, Initial residual = 0.000298505, Final residual = 1.94874e-07, No Iterations 1
DICPCG:  Solving for p_rgh, Initial residual = 7.71399e-05, Final residual = 9.24826e-07, No Iterations 63
time step continuity errors : sum local = 4.91541e-08, global = 1.8618e-10, cumulative = 7.52095e-05
ExecutionTime = 462.26 s  ClockTime = 466 s

Time = 5000

DILUPBiCGStab:  Solving for Ux, Initial residual = 0.000132571, Final residual = 4.66212e-07, No Iterations 1
DILUPBiCGStab:  Solving for Uy, Initial residual = 2.85056e-05, Final residual = 1.00999e-07, No Iterations 1
DILUPBiCGStab:  Solving for Uz, Initial residual = 4.09548e-05, Final residual = 1.42329e-07, No Iterations 1
DICPCG:  Solving for G, Initial residual = 7.86615e-05, Final residual = 6.79712e-06, No Iterations 25
DILUPBiCGStab:  Solving for h, Initial residual = 0.00029848, Final residual = 1.94858e-07, No Iterations 1
DICPCG:  Solving for p_rgh, Initial residual = 7.71233e-05, Final residual = 9.24764e-07, No Iterations 63
time step continuity errors : sum local = 4.91518e-08, global = 1.86157e-10, cumulative = 7.52097e-05
ExecutionTime = 462.36 s  ClockTime = 466 s

End

Finalising parallel run
