/*---------------------------------------------------------------------------*\
  =========                 |
  \\      /  F ield         | OpenFOAM: The Open Source CFD Toolbox
   \\    /   O peration     | Website:  https://openfoam.org
    \\  /    A nd           | Version:  9
     \\/     M anipulation  |
\*---------------------------------------------------------------------------*/
Build  : 9-89839ae3b8cd
Exec   : buoyantSimpleFoam -parallel
Date   : Apr 08 2022
Time   : 12:51:03
Host   : "0b4a0c9cd4c1"
PID    : 12686
I/O    : uncollated
Case   : /home/openfoam/STL_ThermalZones/STL_IGU_55_N6_AER4
nProcs : 16
Slaves : 
15
(
"0b4a0c9cd4c1.12687"
"0b4a0c9cd4c1.12688"
"0b4a0c9cd4c1.12689"
"0b4a0c9cd4c1.12690"
"0b4a0c9cd4c1.12691"
"0b4a0c9cd4c1.12692"
"0b4a0c9cd4c1.12693"
"0b4a0c9cd4c1.12694"
"0b4a0c9cd4c1.12695"
"0b4a0c9cd4c1.12696"
"0b4a0c9cd4c1.12697"
"0b4a0c9cd4c1.12698"
"0b4a0c9cd4c1.12699"
"0b4a0c9cd4c1.12700"
"0b4a0c9cd4c1.12701"
)

Pstream initialised with:
    floatTransfer      : 0
    nProcsSimpleSum    : 0
    commsType          : nonBlocking
    polling iterations : 0
sigFpe : Enabling floating point exception trapping (FOAM_SIGFPE).
fileModificationChecking : Monitoring run-time modified files using timeStampMaster (fileModificationSkew 10)
allowSystemOperations : Allowing user-supplied system call operations

// * * * * * * * * * * * * * * * * * * * * * * * * * * * * * * * * * * * * * //
Create time

Create mesh for time = 0


SIMPLE: Convergence criteria found
        p_rgh: tolerance 0.0001
        U: tolerance 0.0001
        h: tolerance 0.0001
        G: tolerance 1e-05
        "(k|epsilon|omega)": tolerance 0.0001

Reading thermophysical properties

Selecting thermodynamics package 
{
    type            heRhoThermo;
    mixture         pureMixture;
    transport       const;
    thermo          hConst;
    equationOfState perfectGas;
    specie          specie;
    energy          sensibleEnthalpy;
}

Reading field U

Reading/calculating face flux field phi

Creating turbulence model

Selecting turbulence model type RAS
Selecting RAS turbulence model kEpsilon
RAS
{
    model           kEpsilon;
    turbulence      off;
    printCoeffs     on;
    Cmu             0.09;
    C1              1.44;
    C2              1.92;
    C3              0;
    sigmak          1;
    sigmaEps        1.3;
}

Creating thermophysical transport model

Selecting thermophysical transport type RAS
Selecting default RAS thermophysical transport model unityLewisEddyDiffusivity

Reading g

Reading hRef
Calculating field g.h


Reading pRef
Reading field p_rgh

No MRF models present

Creating fvModels from "constant/fvModels"

Selecting finite volume model type radiation
    Name: radiation
Selecting radiationModel P1
Selecting absorptionEmissionModel constant
Selecting scatterModel none
Selecting soot model none
--> FOAM Warning : Creating fvConstraints from "system/fvOptions"

Selecting finite volume constraint type limitTemperature
    Name: limitTemperature
    - selecting all cells
    - selected 160281 cell(s) with volume 38.5043

Starting time loop

Time = 1

DILUPBiCGStab:  Solving for Ux, Initial residual = 1, Final residual = 0.00397491, No Iterations 1
DILUPBiCGStab:  Solving for Uy, Initial residual = 1, Final residual = 0.00283364, No Iterations 1
DILUPBiCGStab:  Solving for Uz, Initial residual = 1, Final residual = 0.00390159, No Iterations 1
DICPCG:  Solving for G, Initial residual = 1, Final residual = 0.0979568, No Iterations 23
DILUPBiCGStab:  Solving for h, Initial residual = 1, Final residual = 0.00927853, No Iterations 1
DICPCG:  Solving for p_rgh, Initial residual = 0.644404, Final residual = 0.00550591, No Iterations 69
time step continuity errors : sum local = 0.0226874, global = -0.000101674, cumulative = -0.000101674
ExecutionTime = 0.2 s  ClockTime = 0 s

Time = 2

DILUPBiCGStab:  Solving for Ux, Initial residual = 0.368757, Final residual = 0.00124543, No Iterations 1
DILUPBiCGStab:  Solving for Uy, Initial residual = 0.307737, Final residual = 0.00101245, No Iterations 1
DILUPBiCGStab:  Solving for Uz, Initial residual = 0.210818, Final residual = 0.000794112, No Iterations 1
DICPCG:  Solving for G, Initial residual = 0.513444, Final residual = 0.0450399, No Iterations 15
DILUPBiCGStab:  Solving for h, Initial residual = 0.0506002, Final residual = 0.000356703, No Iterations 1
DICPCG:  Solving for p_rgh, Initial residual = 0.780029, Final residual = 0.00660351, No Iterations 77
time step continuity errors : sum local = 0.00900122, global = 8.69861e-06, cumulative = -9.29758e-05
ExecutionTime = 0.33 s  ClockTime = 1 s

Time = 3

DILUPBiCGStab:  Solving for Ux, Initial residual = 0.295369, Final residual = 0.000982186, No Iterations 1
DILUPBiCGStab:  Solving for Uy, Initial residual = 0.289814, Final residual = 0.000862226, No Iterations 1
DILUPBiCGStab:  Solving for Uz, Initial residual = 0.885064, Final residual = 0.00368472, No Iterations 1
DICPCG:  Solving for G, Initial residual = 0.19125, Final residual = 0.0173059, No Iterations 12
DILUPBiCGStab:  Solving for h, Initial residual = 0.0336781, Final residual = 0.000236314, No Iterations 1
DICPCG:  Solving for p_rgh, Initial residual = 0.787824, Final residual = 0.00754655, No Iterations 67
time step continuity errors : sum local = 0.00945941, global = -7.99846e-05, cumulative = -0.00017296
ExecutionTime = 0.44 s  ClockTime = 1 s

Time = 4

DILUPBiCGStab:  Solving for Ux, Initial residual = 0.284407, Final residual = 0.00103125, No Iterations 1
DILUPBiCGStab:  Solving for Uy, Initial residual = 0.270038, Final residual = 0.000950413, No Iterations 1
DILUPBiCGStab:  Solving for Uz, Initial residual = 0.204819, Final residual = 0.00113122, No Iterations 1
DICPCG:  Solving for G, Initial residual = 0.0364147, Final residual = 0.00319571, No Iterations 17
DILUPBiCGStab:  Solving for h, Initial residual = 0.0291478, Final residual = 0.000203111, No Iterations 1
DICPCG:  Solving for p_rgh, Initial residual = 0.619296, Final residual = 0.00556447, No Iterations 73
time step continuity errors : sum local = 0.00470682, global = 6.36539e-06, cumulative = -0.000166595
ExecutionTime = 0.57 s  ClockTime = 1 s

Time = 5

DILUPBiCGStab:  Solving for Ux, Initial residual = 0.256165, Final residual = 0.00103582, No Iterations 1
DILUPBiCGStab:  Solving for Uy, Initial residual = 0.26966, Final residual = 0.000943918, No Iterations 1
DILUPBiCGStab:  Solving for Uz, Initial residual = 0.762264, Final residual = 0.00358765, No Iterations 1
DICPCG:  Solving for G, Initial residual = 0.0108783, Final residual = 0.00099358, No Iterations 19
DILUPBiCGStab:  Solving for h, Initial residual = 0.0252528, Final residual = 0.000178017, No Iterations 1
DICPCG:  Solving for p_rgh, Initial residual = 0.684583, Final residual = 0.00600776, No Iterations 70
time step continuity errors : sum local = 0.00296283, global = -5.01442e-06, cumulative = -0.000171609
ExecutionTime = 0.68 s  ClockTime = 1 s

Time = 6

DILUPBiCGStab:  Solving for Ux, Initial residual = 0.222585, Final residual = 0.000797334, No Iterations 1
DILUPBiCGStab:  Solving for Uy, Initial residual = 0.225817, Final residual = 0.000876818, No Iterations 1
DILUPBiCGStab:  Solving for Uz, Initial residual = 0.32883, Final residual = 0.00135124, No Iterations 1
DICPCG:  Solving for G, Initial residual = 0.00594397, Final residual = 0.000542035, No Iterations 20
DILUPBiCGStab:  Solving for h, Initial residual = 0.0220891, Final residual = 0.000160392, No Iterations 1
DICPCG:  Solving for p_rgh, Initial residual = 0.598231, Final residual = 0.00494438, No Iterations 71
time step continuity errors : sum local = 0.00148587, global = -1.66655e-06, cumulative = -0.000173276
ExecutionTime = 0.81 s  ClockTime = 1 s

Time = 7

DILUPBiCGStab:  Solving for Ux, Initial residual = 0.163022, Final residual = 0.000568857, No Iterations 1
DILUPBiCGStab:  Solving for Uy, Initial residual = 0.164403, Final residual = 0.000569243, No Iterations 1
DILUPBiCGStab:  Solving for Uz, Initial residual = 0.427645, Final residual = 0.00189059, No Iterations 1
DICPCG:  Solving for G, Initial residual = 0.00455474, Final residual = 0.000409673, No Iterations 21
DILUPBiCGStab:  Solving for h, Initial residual = 0.0194866, Final residual = 0.000146204, No Iterations 1
DICPCG:  Solving for p_rgh, Initial residual = 0.498824, Final residual = 0.0045557, No Iterations 61
time step continuity errors : sum local = 0.000924817, global = 6.97705e-07, cumulative = -0.000172578
ExecutionTime = 0.93 s  ClockTime = 1 s

Time = 8

DILUPBiCGStab:  Solving for Ux, Initial residual = 0.0866869, Final residual = 0.000297276, No Iterations 1
DILUPBiCGStab:  Solving for Uy, Initial residual = 0.104245, Final residual = 0.000373497, No Iterations 1
DILUPBiCGStab:  Solving for Uz, Initial residual = 0.244789, Final residual = 0.000985579, No Iterations 1
DICPCG:  Solving for G, Initial residual = 0.00380197, Final residual = 0.000355017, No Iterations 21
DILUPBiCGStab:  Solving for h, Initial residual = 0.0172823, Final residual = 0.00013404, No Iterations 1
DICPCG:  Solving for p_rgh, Initial residual = 0.385744, Final residual = 0.00365205, No Iterations 70
time step continuity errors : sum local = 0.00056792, global = 6.32252e-07, cumulative = -0.000171946
ExecutionTime = 1.05 s  ClockTime = 1 s

Time = 9

DILUPBiCGStab:  Solving for Ux, Initial residual = 0.0766632, Final residual = 0.000302248, No Iterations 1
DILUPBiCGStab:  Solving for Uy, Initial residual = 0.0912844, Final residual = 0.000298927, No Iterations 1
DILUPBiCGStab:  Solving for Uz, Initial residual = 0.144433, Final residual = 0.000648877, No Iterations 1
DICPCG:  Solving for G, Initial residual = 0.00320429, Final residual = 0.000304838, No Iterations 21
DILUPBiCGStab:  Solving for h, Initial residual = 0.0154919, Final residual = 0.000124628, No Iterations 1
DICPCG:  Solving for p_rgh, Initial residual = 0.263058, Final residual = 0.00258313, No Iterations 23
time step continuity errors : sum local = 0.000320019, global = -9.24413e-05, cumulative = -0.000264387
ExecutionTime = 1.16 s  ClockTime = 1 s

Time = 10

DILUPBiCGStab:  Solving for Ux, Initial residual = 0.0500129, Final residual = 0.000145899, No Iterations 1
DILUPBiCGStab:  Solving for Uy, Initial residual = 0.0640338, Final residual = 0.00019094, No Iterations 1
DILUPBiCGStab:  Solving for Uz, Initial residual = 0.126018, Final residual = 0.000548523, No Iterations 1
DICPCG:  Solving for G, Initial residual = 0.00273868, Final residual = 0.000262517, No Iterations 21
DILUPBiCGStab:  Solving for h, Initial residual = 0.0140064, Final residual = 0.000117018, No Iterations 1
DICPCG:  Solving for p_rgh, Initial residual = 0.196294, Final residual = 0.00164877, No Iterations 69
time step continuity errors : sum local = 0.000183427, global = -2.06603e-07, cumulative = -0.000264594
ExecutionTime = 1.29 s  ClockTime = 2 s

Time = 11

DILUPBiCGStab:  Solving for Ux, Initial residual = 0.0439308, Final residual = 0.000132887, No Iterations 1
DILUPBiCGStab:  Solving for Uy, Initial residual = 0.0573242, Final residual = 0.000177386, No Iterations 1
DILUPBiCGStab:  Solving for Uz, Initial residual = 0.0473285, Final residual = 0.000170737, No Iterations 1
DICPCG:  Solving for G, Initial residual = 0.00236428, Final residual = 0.000229292, No Iterations 21
DILUPBiCGStab:  Solving for h, Initial residual = 0.01276, Final residual = 0.000110904, No Iterations 1
DICPCG:  Solving for p_rgh, Initial residual = 0.110449, Final residual = 0.000984342, No Iterations 68
time step continuity errors : sum local = 0.000100206, global = -8.28676e-08, cumulative = -0.000264677
ExecutionTime = 1.41 s  ClockTime = 2 s

Time = 12

DILUPBiCGStab:  Solving for Ux, Initial residual = 0.0312775, Final residual = 8.61296e-05, No Iterations 1
DILUPBiCGStab:  Solving for Uy, Initial residual = 0.0439811, Final residual = 0.000124425, No Iterations 1
DILUPBiCGStab:  Solving for Uz, Initial residual = 0.0550241, Final residual = 0.00020169, No Iterations 1
DICPCG:  Solving for G, Initial residual = 0.00205809, Final residual = 0.000200482, No Iterations 21
DILUPBiCGStab:  Solving for h, Initial residual = 0.0116973, Final residual = 0.000105964, No Iterations 1
DICPCG:  Solving for p_rgh, Initial residual = 0.0833941, Final residual = 0.000730826, No Iterations 67
time step continuity errors : sum local = 7.11655e-05, global = -3.1803e-08, cumulative = -0.000264709
ExecutionTime = 1.54 s  ClockTime = 2 s

Time = 13

DILUPBiCGStab:  Solving for Ux, Initial residual = 0.0273023, Final residual = 8.62351e-05, No Iterations 1
DILUPBiCGStab:  Solving for Uy, Initial residual = 0.040532, Final residual = 0.000120784, No Iterations 1
DILUPBiCGStab:  Solving for Uz, Initial residual = 0.0317267, Final residual = 0.000100689, No Iterations 1
DICPCG:  Solving for G, Initial residual = 0.00184183, Final residual = 0.000184158, No Iterations 20
DILUPBiCGStab:  Solving for h, Initial residual = 0.0107802, Final residual = 0.00010179, No Iterations 1
DICPCG:  Solving for p_rgh, Initial residual = 0.0619491, Final residual = 0.000615726, No Iterations 67
time step continuity errors : sum local = 5.81673e-05, global = -1.17659e-07, cumulative = -0.000264826
ExecutionTime = 1.66 s  ClockTime = 2 s

Time = 14

DILUPBiCGStab:  Solving for Ux, Initial residual = 0.0242285, Final residual = 7.24878e-05, No Iterations 1
DILUPBiCGStab:  Solving for Uy, Initial residual = 0.0360963, Final residual = 0.000110685, No Iterations 1
DILUPBiCGStab:  Solving for Uz, Initial residual = 0.0321272, Final residual = 0.00011248, No Iterations 1
DICPCG:  Solving for G, Initial residual = 0.00162505, Final residual = 0.000146027, No Iterations 21
DILUPBiCGStab:  Solving for h, Initial residual = 0.00998405, Final residual = 9.82687e-05, No Iterations 1
DICPCG:  Solving for p_rgh, Initial residual = 0.0512592, Final residual = 0.000456518, No Iterations 57
time step continuity errors : sum local = 4.18924e-05, global = 1.74854e-07, cumulative = -0.000264651
ExecutionTime = 1.78 s  ClockTime = 2 s

Time = 15

DILUPBiCGStab:  Solving for Ux, Initial residual = 0.0220233, Final residual = 6.40847e-05, No Iterations 1
DILUPBiCGStab:  Solving for Uy, Initial residual = 0.0327828, Final residual = 0.000103496, No Iterations 1
DILUPBiCGStab:  Solving for Uz, Initial residual = 0.0251123, Final residual = 8.27539e-05, No Iterations 1
DICPCG:  Solving for G, Initial residual = 0.00143497, Final residual = 0.000132572, No Iterations 21
DILUPBiCGStab:  Solving for h, Initial residual = 0.00928332, Final residual = 3.08251e-06, No Iterations 1
DICPCG:  Solving for p_rgh, Initial residual = 0.0421368, Final residual = 0.000372097, No Iterations 56
time step continuity errors : sum local = 3.31094e-05, global = -2.21968e-08, cumulative = -0.000264674
ExecutionTime = 1.91 s  ClockTime = 2 s

Time = 16

DILUPBiCGStab:  Solving for Ux, Initial residual = 0.020039, Final residual = 6.03763e-05, No Iterations 1
DILUPBiCGStab:  Solving for Uy, Initial residual = 0.0300831, Final residual = 9.6631e-05, No Iterations 1
DILUPBiCGStab:  Solving for Uz, Initial residual = 0.0225882, Final residual = 7.70314e-05, No Iterations 1
DICPCG:  Solving for G, Initial residual = 0.0012718, Final residual = 0.000104013, No Iterations 22
DILUPBiCGStab:  Solving for h, Initial residual = 0.00866499, Final residual = 2.9755e-06, No Iterations 1
DICPCG:  Solving for p_rgh, Initial residual = 0.0367289, Final residual = 0.000340089, No Iterations 63
time step continuity errors : sum local = 2.93717e-05, global = -2.10917e-07, cumulative = -0.000264885
ExecutionTime = 2.02 s  ClockTime = 2 s

Time = 17

DILUPBiCGStab:  Solving for Ux, Initial residual = 0.0184182, Final residual = 5.83397e-05, No Iterations 1
DILUPBiCGStab:  Solving for Uy, Initial residual = 0.0278721, Final residual = 9.26374e-05, No Iterations 1
DILUPBiCGStab:  Solving for Uz, Initial residual = 0.0209049, Final residual = 7.717e-05, No Iterations 1
DICPCG:  Solving for G, Initial residual = 0.00114946, Final residual = 9.4571e-05, No Iterations 22
DILUPBiCGStab:  Solving for h, Initial residual = 0.00811344, Final residual = 2.88179e-06, No Iterations 1
DICPCG:  Solving for p_rgh, Initial residual = 0.0334549, Final residual = 0.000324615, No Iterations 19
time step continuity errors : sum local = 2.73112e-05, global = -7.23617e-06, cumulative = -0.000272121
ExecutionTime = 2.14 s  ClockTime = 2 s

Time = 18

DILUPBiCGStab:  Solving for Ux, Initial residual = 0.0171501, Final residual = 5.60172e-05, No Iterations 1
DILUPBiCGStab:  Solving for Uy, Initial residual = 0.02607, Final residual = 9.02341e-05, No Iterations 1
DILUPBiCGStab:  Solving for Uz, Initial residual = 0.0197456, Final residual = 7.72633e-05, No Iterations 1
DICPCG:  Solving for G, Initial residual = 0.0010434, Final residual = 0.000103362, No Iterations 21
DILUPBiCGStab:  Solving for h, Initial residual = 0.0076194, Final residual = 2.79888e-06, No Iterations 1
DICPCG:  Solving for p_rgh, Initial residual = 0.0307311, Final residual = 0.000260442, No Iterations 55
time step continuity errors : sum local = 2.14179e-05, global = -1.28525e-07, cumulative = -0.000272249
ExecutionTime = 2.27 s  ClockTime = 3 s

Time = 19

DILUPBiCGStab:  Solving for Ux, Initial residual = 0.0162073, Final residual = 5.42461e-05, No Iterations 1
DILUPBiCGStab:  Solving for Uy, Initial residual = 0.0244509, Final residual = 8.63219e-05, No Iterations 1
DILUPBiCGStab:  Solving for Uz, Initial residual = 0.0184113, Final residual = 7.37647e-05, No Iterations 1
DICPCG:  Solving for G, Initial residual = 0.000956318, Final residual = 9.2742e-05, No Iterations 21
DILUPBiCGStab:  Solving for h, Initial residual = 0.00717618, Final residual = 2.72471e-06, No Iterations 1
DICPCG:  Solving for p_rgh, Initial residual = 0.0282846, Final residual = 0.000273471, No Iterations 16
time step continuity errors : sum local = 2.20004e-05, global = -4.06013e-06, cumulative = -0.000276309
ExecutionTime = 2.37 s  ClockTime = 3 s

Time = 20

DILUPBiCGStab:  Solving for Ux, Initial residual = 0.0154353, Final residual = 5.31307e-05, No Iterations 1
DILUPBiCGStab:  Solving for Uy, Initial residual = 0.0231738, Final residual = 8.28949e-05, No Iterations 1
DILUPBiCGStab:  Solving for Uz, Initial residual = 0.0173739, Final residual = 7.06913e-05, No Iterations 1
DICPCG:  Solving for G, Initial residual = 0.000873718, Final residual = 8.52468e-05, No Iterations 21
DILUPBiCGStab:  Solving for h, Initial residual = 0.00677666, Final residual = 2.65868e-06, No Iterations 1
DICPCG:  Solving for p_rgh, Initial residual = 0.0262863, Final residual = 0.00026236, No Iterations 13
time step continuity errors : sum local = 2.07057e-05, global = -5.37809e-06, cumulative = -0.000281687
ExecutionTime = 2.5 s  ClockTime = 3 s

Time = 21

DILUPBiCGStab:  Solving for Ux, Initial residual = 0.0146884, Final residual = 5.16621e-05, No Iterations 1
DILUPBiCGStab:  Solving for Uy, Initial residual = 0.0221071, Final residual = 8.00303e-05, No Iterations 1
DILUPBiCGStab:  Solving for Uz, Initial residual = 0.0165424, Final residual = 6.81663e-05, No Iterations 1
DICPCG:  Solving for G, Initial residual = 0.000803954, Final residual = 7.77531e-05, No Iterations 21
DILUPBiCGStab:  Solving for h, Initial residual = 0.00641777, Final residual = 2.59963e-06, No Iterations 1
DICPCG:  Solving for p_rgh, Initial residual = 0.0246414, Final residual = 0.000240626, No Iterations 55
time step continuity errors : sum local = 1.86559e-05, global = -2.67213e-08, cumulative = -0.000281714
ExecutionTime = 2.61 s  ClockTime = 3 s

Time = 22

DILUPBiCGStab:  Solving for Ux, Initial residual = 0.0140563, Final residual = 5.03869e-05, No Iterations 1
DILUPBiCGStab:  Solving for Uy, Initial residual = 0.0211595, Final residual = 7.74327e-05, No Iterations 1
DILUPBiCGStab:  Solving for Uz, Initial residual = 0.0158106, Final residual = 6.57994e-05, No Iterations 1
DICPCG:  Solving for G, Initial residual = 0.000743129, Final residual = 7.08706e-05, No Iterations 21
DILUPBiCGStab:  Solving for h, Initial residual = 0.00609892, Final residual = 2.54604e-06, No Iterations 1
DICPCG:  Solving for p_rgh, Initial residual = 0.0230984, Final residual = 0.000228385, No Iterations 14
time step continuity errors : sum local = 1.74105e-05, global = -2.82272e-07, cumulative = -0.000281996
ExecutionTime = 2.73 s  ClockTime = 3 s

Time = 23

DILUPBiCGStab:  Solving for Ux, Initial residual = 0.013593, Final residual = 4.94739e-05, No Iterations 1
DILUPBiCGStab:  Solving for Uy, Initial residual = 0.02029, Final residual = 7.46417e-05, No Iterations 1
DILUPBiCGStab:  Solving for Uz, Initial residual = 0.0151733, Final residual = 6.36565e-05, No Iterations 1
DICPCG:  Solving for G, Initial residual = 0.000689915, Final residual = 6.61201e-05, No Iterations 21
DILUPBiCGStab:  Solving for h, Initial residual = 0.00580917, Final residual = 2.49685e-06, No Iterations 1
DICPCG:  Solving for p_rgh, Initial residual = 0.0217172, Final residual = 0.000203701, No Iterations 14
time step continuity errors : sum local = 1.53004e-05, global = 5.44123e-07, cumulative = -0.000281452
ExecutionTime = 2.83 s  ClockTime = 3 s

Time = 24

DILUPBiCGStab:  Solving for Ux, Initial residual = 0.0131709, Final residual = 4.85476e-05, No Iterations 1
DILUPBiCGStab:  Solving for Uy, Initial residual = 0.0195147, Final residual = 7.22475e-05, No Iterations 1
DILUPBiCGStab:  Solving for Uz, Initial residual = 0.0145935, Final residual = 6.1615e-05, No Iterations 1
DICPCG:  Solving for G, Initial residual = 0.00064283, Final residual = 6.04773e-05, No Iterations 21
DILUPBiCGStab:  Solving for h, Initial residual = 0.00554399, Final residual = 2.45134e-06, No Iterations 1
DICPCG:  Solving for p_rgh, Initial residual = 0.0204503, Final residual = 0.000190835, No Iterations 14
time step continuity errors : sum local = 1.41448e-05, global = 3.01312e-07, cumulative = -0.000281151
ExecutionTime = 2.94 s  ClockTime = 3 s

Time = 25

DILUPBiCGStab:  Solving for Ux, Initial residual = 0.0127675, Final residual = 4.75906e-05, No Iterations 1
DILUPBiCGStab:  Solving for Uy, Initial residual = 0.0188028, Final residual = 6.99801e-05, No Iterations 1
DILUPBiCGStab:  Solving for Uz, Initial residual = 0.0140735, Final residual = 5.97079e-05, No Iterations 1
DICPCG:  Solving for G, Initial residual = 0.00060116, Final residual = 5.63612e-05, No Iterations 21
DILUPBiCGStab:  Solving for h, Initial residual = 0.00530062, Final residual = 2.40852e-06, No Iterations 1
DICPCG:  Solving for p_rgh, Initial residual = 0.0193086, Final residual = 0.000180365, No Iterations 16
time step continuity errors : sum local = 1.32107e-05, global = -2.77719e-07, cumulative = -0.000281429
ExecutionTime = 3.06 s  ClockTime = 3 s

Time = 26

DILUPBiCGStab:  Solving for Ux, Initial residual = 0.012401, Final residual = 4.67472e-05, No Iterations 1
DILUPBiCGStab:  Solving for Uy, Initial residual = 0.0181601, Final residual = 6.79097e-05, No Iterations 1
DILUPBiCGStab:  Solving for Uz, Initial residual = 0.013603, Final residual = 5.79464e-05, No Iterations 1
DICPCG:  Solving for G, Initial residual = 0.000563828, Final residual = 5.16167e-05, No Iterations 21
DILUPBiCGStab:  Solving for h, Initial residual = 0.00507659, Final residual = 2.36772e-06, No Iterations 1
DICPCG:  Solving for p_rgh, Initial residual = 0.0182404, Final residual = 0.000179105, No Iterations 19
time step continuity errors : sum local = 1.29792e-05, global = -8.1644e-07, cumulative = -0.000282245
ExecutionTime = 3.18 s  ClockTime = 3 s

Time = 27

DILUPBiCGStab:  Solving for Ux, Initial residual = 0.0120786, Final residual = 4.60848e-05, No Iterations 1
DILUPBiCGStab:  Solving for Uy, Initial residual = 0.0175666, Final residual = 6.59175e-05, No Iterations 1
DILUPBiCGStab:  Solving for Uz, Initial residual = 0.0131651, Final residual = 5.62707e-05, No Iterations 1
DICPCG:  Solving for G, Initial residual = 0.000530618, Final residual = 4.79394e-05, No Iterations 21
DILUPBiCGStab:  Solving for h, Initial residual = 0.00486963, Final residual = 2.32897e-06, No Iterations 1
DICPCG:  Solving for p_rgh, Initial residual = 0.0173016, Final residual = 0.000166389, No Iterations 13
time step continuity errors : sum local = 1.19397e-05, global = -1.31828e-06, cumulative = -0.000283563
ExecutionTime = 3.28 s  ClockTime = 4 s

Time = 28

DILUPBiCGStab:  Solving for Ux, Initial residual = 0.0117707, Final residual = 4.51844e-05, No Iterations 1
DILUPBiCGStab:  Solving for Uy, Initial residual = 0.0169305, Final residual = 6.35924e-05, No Iterations 1
DILUPBiCGStab:  Solving for Uz, Initial residual = 0.0127722, Final residual = 5.47933e-05, No Iterations 1
DICPCG:  Solving for G, Initial residual = 0.000500595, Final residual = 4.38201e-05, No Iterations 21
DILUPBiCGStab:  Solving for h, Initial residual = 0.00467831, Final residual = 2.29214e-06, No Iterations 1
DICPCG:  Solving for p_rgh, Initial residual = 0.0164498, Final residual = 0.000153113, No Iterations 16
time step continuity errors : sum local = 1.08875e-05, global = -1.64436e-06, cumulative = -0.000285208
ExecutionTime = 3.39 s  ClockTime = 4 s

Time = 29

DILUPBiCGStab:  Solving for Ux, Initial residual = 0.011511, Final residual = 4.46616e-05, No Iterations 1
DILUPBiCGStab:  Solving for Uy, Initial residual = 0.0164126, Final residual = 6.19114e-05, No Iterations 1
DILUPBiCGStab:  Solving for Uz, Initial residual = 0.012412, Final residual = 5.3364e-05, No Iterations 1
DICPCG:  Solving for G, Initial residual = 0.000473627, Final residual = 4.63132e-05, No Iterations 20
DILUPBiCGStab:  Solving for h, Initial residual = 0.00450073, Final residual = 2.2566e-06, No Iterations 1
DICPCG:  Solving for p_rgh, Initial residual = 0.0156632, Final residual = 0.000151556, No Iterations 16
time step continuity errors : sum local = 1.06862e-05, global = -1.75993e-06, cumulative = -0.000286968
ExecutionTime = 3.51 s  ClockTime = 4 s

Time = 30

DILUPBiCGStab:  Solving for Ux, Initial residual = 0.0112572, Final residual = 4.40499e-05, No Iterations 1
DILUPBiCGStab:  Solving for Uy, Initial residual = 0.0159384, Final residual = 6.02536e-05, No Iterations 1
DILUPBiCGStab:  Solving for Uz, Initial residual = 0.0120702, Final residual = 5.19753e-05, No Iterations 1
DICPCG:  Solving for G, Initial residual = 0.000452323, Final residual = 4.31195e-05, No Iterations 20
DILUPBiCGStab:  Solving for h, Initial residual = 0.00433565, Final residual = 2.22178e-06, No Iterations 1
DICPCG:  Solving for p_rgh, Initial residual = 0.0149628, Final residual = 0.000145217, No Iterations 16
time step continuity errors : sum local = 1.01596e-05, global = -1.65005e-06, cumulative = -0.000288618
ExecutionTime = 3.64 s  ClockTime = 4 s

Time = 31

DILUPBiCGStab:  Solving for Ux, Initial residual = 0.0110119, Final residual = 4.33945e-05, No Iterations 1
DILUPBiCGStab:  Solving for Uy, Initial residual = 0.0154638, Final residual = 5.84822e-05, No Iterations 1
DILUPBiCGStab:  Solving for Uz, Initial residual = 0.0117534, Final residual = 5.06671e-05, No Iterations 1
DICPCG:  Solving for G, Initial residual = 0.000429554, Final residual = 4.24339e-05, No Iterations 19
DILUPBiCGStab:  Solving for h, Initial residual = 0.00418191, Final residual = 2.18763e-06, No Iterations 1
DICPCG:  Solving for p_rgh, Initial residual = 0.0143252, Final residual = 0.000136402, No Iterations 16
time step continuity errors : sum local = 9.4738e-06, global = -1.31868e-06, cumulative = -0.000289936
ExecutionTime = 3.74 s  ClockTime = 4 s

Time = 32

DILUPBiCGStab:  Solving for Ux, Initial residual = 0.0107854, Final residual = 4.27915e-05, No Iterations 1
DILUPBiCGStab:  Solving for Uy, Initial residual = 0.0150058, Final residual = 5.67743e-05, No Iterations 1
DILUPBiCGStab:  Solving for Uz, Initial residual = 0.0114614, Final residual = 4.94162e-05, No Iterations 1
DICPCG:  Solving for G, Initial residual = 0.000409956, Final residual = 3.87839e-05, No Iterations 19
DILUPBiCGStab:  Solving for h, Initial residual = 0.00403842, Final residual = 2.15422e-06, No Iterations 1
DICPCG:  Solving for p_rgh, Initial residual = 0.0137388, Final residual = 0.000135627, No Iterations 16
time step continuity errors : sum local = 9.35598e-06, global = -7.7167e-07, cumulative = -0.000290708
ExecutionTime = 3.85 s  ClockTime = 4 s

Time = 33

DILUPBiCGStab:  Solving for Ux, Initial residual = 0.0105736, Final residual = 4.2241e-05, No Iterations 1
DILUPBiCGStab:  Solving for Uy, Initial residual = 0.0145806, Final residual = 5.52298e-05, No Iterations 1
DILUPBiCGStab:  Solving for Uz, Initial residual = 0.0111895, Final residual = 4.82327e-05, No Iterations 1
DICPCG:  Solving for G, Initial residual = 0.000390906, Final residual = 3.59351e-05, No Iterations 19
DILUPBiCGStab:  Solving for h, Initial residual = 0.0039043, Final residual = 2.12099e-06, No Iterations 1
DICPCG:  Solving for p_rgh, Initial residual = 0.0131984, Final residual = 0.000131632, No Iterations 17
time step continuity errors : sum local = 9.02172e-06, global = -2.02169e-08, cumulative = -0.000290728
ExecutionTime = 3.97 s  ClockTime = 4 s

Time = 34

DILUPBiCGStab:  Solving for Ux, Initial residual = 0.0103718, Final residual = 4.17302e-05, No Iterations 1
DILUPBiCGStab:  Solving for Uy, Initial residual = 0.0141941, Final residual = 5.38235e-05, No Iterations 1
DILUPBiCGStab:  Solving for Uz, Initial residual = 0.0109328, Final residual = 4.70945e-05, No Iterations 1
DICPCG:  Solving for G, Initial residual = 0.000374094, Final residual = 3.59265e-05, No Iterations 18
DILUPBiCGStab:  Solving for h, Initial residual = 0.00377865, Final residual = 2.08778e-06, No Iterations 1
DICPCG:  Solving for p_rgh, Initial residual = 0.0127042, Final residual = 0.000111727, No Iterations 19
time step continuity errors : sum local = 7.61009e-06, global = 9.34246e-07, cumulative = -0.000289794
ExecutionTime = 4.07 s  ClockTime = 4 s

Time = 35

DILUPBiCGStab:  Solving for Ux, Initial residual = 0.0101752, Final residual = 4.12025e-05, No Iterations 1
DILUPBiCGStab:  Solving for Uy, Initial residual = 0.0138267, Final residual = 5.24365e-05, No Iterations 1
DILUPBiCGStab:  Solving for Uz, Initial residual = 0.0106905, Final residual = 4.59945e-05, No Iterations 1
DICPCG:  Solving for G, Initial residual = 0.000359288, Final residual = 3.41809e-05, No Iterations 18
DILUPBiCGStab:  Solving for h, Initial residual = 0.00366082, Final residual = 2.05499e-06, No Iterations 1
DICPCG:  Solving for p_rgh, Initial residual = 0.0122454, Final residual = 0.000121221, No Iterations 19
time step continuity errors : sum local = 8.20825e-06, global = 2.02467e-06, cumulative = -0.000287769
ExecutionTime = 4.18 s  ClockTime = 4 s

Time = 36

DILUPBiCGStab:  Solving for Ux, Initial residual = 0.00998511, Final residual = 4.06532e-05, No Iterations 1
DILUPBiCGStab:  Solving for Uy, Initial residual = 0.0134538, Final residual = 5.10089e-05, No Iterations 1
DILUPBiCGStab:  Solving for Uz, Initial residual = 0.0104683, Final residual = 4.49958e-05, No Iterations 1
DICPCG:  Solving for G, Initial residual = 0.000344893, Final residual = 3.343e-05, No Iterations 18
DILUPBiCGStab:  Solving for h, Initial residual = 0.00355024, Final residual = 2.02257e-06, No Iterations 1
DICPCG:  Solving for p_rgh, Initial residual = 0.0118125, Final residual = 0.000102516, No Iterations 56
time step continuity errors : sum local = 6.90305e-06, global = 1.07595e-07, cumulative = -0.000287662
ExecutionTime = 4.29 s  ClockTime = 5 s

Time = 37

DILUPBiCGStab:  Solving for Ux, Initial residual = 0.00979306, Final residual = 4.01015e-05, No Iterations 1
DILUPBiCGStab:  Solving for Uy, Initial residual = 0.0131083, Final residual = 4.97116e-05, No Iterations 1
DILUPBiCGStab:  Solving for Uz, Initial residual = 0.0102537, Final residual = 4.40522e-05, No Iterations 1
DICPCG:  Solving for G, Initial residual = 0.000332151, Final residual = 3.22201e-05, No Iterations 18
DILUPBiCGStab:  Solving for h, Initial residual = 0.00344639, Final residual = 1.9904e-06, No Iterations 1
DICPCG:  Solving for p_rgh, Initial residual = 0.01143, Final residual = 0.000113421, No Iterations 18
time step continuity errors : sum local = 7.59516e-06, global = -7.22111e-08, cumulative = -0.000287734
ExecutionTime = 4.39 s  ClockTime = 5 s

Time = 38

DILUPBiCGStab:  Solving for Ux, Initial residual = 0.00966229, Final residual = 3.97872e-05, No Iterations 1
DILUPBiCGStab:  Solving for Uy, Initial residual = 0.0127931, Final residual = 4.85207e-05, No Iterations 1
DILUPBiCGStab:  Solving for Uz, Initial residual = 0.0100543, Final residual = 4.31079e-05, No Iterations 1
DICPCG:  Solving for G, Initial residual = 0.000320467, Final residual = 2.98084e-05, No Iterations 19
DILUPBiCGStab:  Solving for h, Initial residual = 0.00334874, Final residual = 1.95855e-06, No Iterations 1
DICPCG:  Solving for p_rgh, Initial residual = 0.01108, Final residual = 9.85765e-05, No Iterations 19
time step continuity errors : sum local = 6.56733e-06, global = -6.08917e-07, cumulative = -0.000288343
ExecutionTime = 4.5 s  ClockTime = 5 s

Time = 39

DILUPBiCGStab:  Solving for Ux, Initial residual = 0.00950009, Final residual = 3.9223e-05, No Iterations 1
DILUPBiCGStab:  Solving for Uy, Initial residual = 0.0125045, Final residual = 4.74041e-05, No Iterations 1
DILUPBiCGStab:  Solving for Uz, Initial residual = 0.00986069, Final residual = 4.22219e-05, No Iterations 1
DICPCG:  Solving for G, Initial residual = 0.000310448, Final residual = 2.94341e-05, No Iterations 19
DILUPBiCGStab:  Solving for h, Initial residual = 0.0032569, Final residual = 1.92711e-06, No Iterations 1
DICPCG:  Solving for p_rgh, Initial residual = 0.0107392, Final residual = 9.95707e-05, No Iterations 17
time step continuity errors : sum local = 6.60065e-06, global = -5.17892e-07, cumulative = -0.000288861
ExecutionTime = 4.6 s  ClockTime = 5 s

Time = 40

DILUPBiCGStab:  Solving for Ux, Initial residual = 0.00932657, Final residual = 3.85899e-05, No Iterations 1
DILUPBiCGStab:  Solving for Uy, Initial residual = 0.0121947, Final residual = 4.61875e-05, No Iterations 1
DILUPBiCGStab:  Solving for Uz, Initial residual = 0.00968201, Final residual = 4.14094e-05, No Iterations 1
DICPCG:  Solving for G, Initial residual = 0.000300439, Final residual = 2.98849e-05, No Iterations 19
DILUPBiCGStab:  Solving for h, Initial residual = 0.00317049, Final residual = 1.89605e-06, No Iterations 1
DICPCG:  Solving for p_rgh, Initial residual = 0.0104116, Final residual = 9.01787e-05, No Iterations 19
time step continuity errors : sum local = 5.94917e-06, global = 3.02604e-08, cumulative = -0.000288831
ExecutionTime = 4.72 s  ClockTime = 5 s

Time = 41

DILUPBiCGStab:  Solving for Ux, Initial residual = 0.00917219, Final residual = 3.81412e-05, No Iterations 1
DILUPBiCGStab:  Solving for Uy, Initial residual = 0.0119355, Final residual = 4.52135e-05, No Iterations 1
DILUPBiCGStab:  Solving for Uz, Initial residual = 0.00950181, Final residual = 4.05842e-05, No Iterations 1
DICPCG:  Solving for G, Initial residual = 0.000291585, Final residual = 2.84925e-05, No Iterations 20
DILUPBiCGStab:  Solving for h, Initial residual = 0.0030893, Final residual = 1.86542e-06, No Iterations 1
DICPCG:  Solving for p_rgh, Initial residual = 0.0101135, Final residual = 9.39201e-05, No Iterations 27
time step continuity errors : sum local = 6.1669e-06, global = 1.04348e-06, cumulative = -0.000287787
ExecutionTime = 4.82 s  ClockTime = 5 s

Time = 42

DILUPBiCGStab:  Solving for Ux, Initial residual = 0.00900054, Final residual = 3.76848e-05, No Iterations 1
DILUPBiCGStab:  Solving for Uy, Initial residual = 0.0116705, Final residual = 4.41276e-05, No Iterations 1
DILUPBiCGStab:  Solving for Uz, Initial residual = 0.00933076, Final residual = 3.97979e-05, No Iterations 1
DICPCG:  Solving for G, Initial residual = 0.000283953, Final residual = 2.40498e-05, No Iterations 21
DILUPBiCGStab:  Solving for h, Initial residual = 0.00301283, Final residual = 1.83531e-06, No Iterations 1
DICPCG:  Solving for p_rgh, Initial residual = 0.00982109, Final residual = 9.36253e-05, No Iterations 18
time step continuity errors : sum local = 6.11937e-06, global = 2.17491e-06, cumulative = -0.000285612
ExecutionTime = 4.94 s  ClockTime = 5 s

Time = 43

DILUPBiCGStab:  Solving for Ux, Initial residual = 0.00887284, Final residual = 3.7281e-05, No Iterations 1
DILUPBiCGStab:  Solving for Uy, Initial residual = 0.0113784, Final residual = 4.30684e-05, No Iterations 1
DILUPBiCGStab:  Solving for Uz, Initial residual = 0.00917966, Final residual = 3.90767e-05, No Iterations 1
DICPCG:  Solving for G, Initial residual = 0.000274274, Final residual = 2.41409e-05, No Iterations 21
DILUPBiCGStab:  Solving for h, Initial residual = 0.00294072, Final residual = 1.8057e-06, No Iterations 1
DICPCG:  Solving for p_rgh, Initial residual = 0.00956366, Final residual = 9.4432e-05, No Iterations 55
time step continuity errors : sum local = 6.14468e-06, global = 9.21949e-08, cumulative = -0.00028552
ExecutionTime = 5.06 s  ClockTime = 5 s

Time = 44

DILUPBiCGStab:  Solving for Ux, Initial residual = 0.00873013, Final residual = 3.67992e-05, No Iterations 1
DILUPBiCGStab:  Solving for Uy, Initial residual = 0.0111548, Final residual = 4.21861e-05, No Iterations 1
DILUPBiCGStab:  Solving for Uz, Initial residual = 0.0090125, Final residual = 3.8332e-05, No Iterations 1
DICPCG:  Solving for G, Initial residual = 0.000266889, Final residual = 2.43695e-05, No Iterations 21
DILUPBiCGStab:  Solving for h, Initial residual = 0.00287264, Final residual = 1.77661e-06, No Iterations 1
DICPCG:  Solving for p_rgh, Initial residual = 0.00934233, Final residual = 8.70334e-05, No Iterations 19
time step continuity errors : sum local = 5.63734e-06, global = -6.66516e-08, cumulative = -0.000285587
ExecutionTime = 5.17 s  ClockTime = 5 s

Time = 45

DILUPBiCGStab:  Solving for Ux, Initial residual = 0.00861589, Final residual = 3.64218e-05, No Iterations 1
DILUPBiCGStab:  Solving for Uy, Initial residual = 0.0109237, Final residual = 4.12409e-05, No Iterations 1
DILUPBiCGStab:  Solving for Uz, Initial residual = 0.00886317, Final residual = 3.76198e-05, No Iterations 1
DICPCG:  Solving for G, Initial residual = 0.000260363, Final residual = 2.46582e-05, No Iterations 21
DILUPBiCGStab:  Solving for h, Initial residual = 0.00280847, Final residual = 1.74808e-06, No Iterations 1
DICPCG:  Solving for p_rgh, Initial residual = 0.00911276, Final residual = 7.99127e-05, No Iterations 19
time step continuity errors : sum local = 5.15452e-06, global = -5.74947e-07, cumulative = -0.000286162
ExecutionTime = 5.3 s  ClockTime = 6 s

Time = 46

DILUPBiCGStab:  Solving for Ux, Initial residual = 0.00847569, Final residual = 3.58734e-05, No Iterations 1
DILUPBiCGStab:  Solving for Uy, Initial residual = 0.010691, Final residual = 4.02777e-05, No Iterations 1
DILUPBiCGStab:  Solving for Uz, Initial residual = 0.00872162, Final residual = 3.69667e-05, No Iterations 1
DICPCG:  Solving for G, Initial residual = 0.000254386, Final residual = 2.48762e-05, No Iterations 21
DILUPBiCGStab:  Solving for h, Initial residual = 0.00274799, Final residual = 1.72018e-06, No Iterations 1
DICPCG:  Solving for p_rgh, Initial residual = 0.00888343, Final residual = 7.81707e-05, No Iterations 19
time step continuity errors : sum local = 5.02182e-06, global = -4.15144e-07, cumulative = -0.000286577
ExecutionTime = 5.4 s  ClockTime = 6 s

Time = 47

DILUPBiCGStab:  Solving for Ux, Initial residual = 0.00833693, Final residual = 3.53472e-05, No Iterations 1
DILUPBiCGStab:  Solving for Uy, Initial residual = 0.0104688, Final residual = 3.93869e-05, No Iterations 1
DILUPBiCGStab:  Solving for Uz, Initial residual = 0.00858464, Final residual = 3.63329e-05, No Iterations 1
DICPCG:  Solving for G, Initial residual = 0.000248854, Final residual = 2.04897e-05, No Iterations 22
DILUPBiCGStab:  Solving for h, Initial residual = 0.00269083, Final residual = 1.69294e-06, No Iterations 1
DICPCG:  Solving for p_rgh, Initial residual = 0.0086616, Final residual = 8.00227e-05, No Iterations 26
time step continuity errors : sum local = 5.12067e-06, global = 2.91917e-07, cumulative = -0.000286285
ExecutionTime = 5.53 s  ClockTime = 6 s

Time = 48

DILUPBiCGStab:  Solving for Ux, Initial residual = 0.00819442, Final residual = 3.48858e-05, No Iterations 1
DILUPBiCGStab:  Solving for Uy, Initial residual = 0.0102709, Final residual = 3.85768e-05, No Iterations 1
DILUPBiCGStab:  Solving for Uz, Initial residual = 0.00844554, Final residual = 3.57394e-05, No Iterations 1
DICPCG:  Solving for G, Initial residual = 0.000243318, Final residual = 2.05318e-05, No Iterations 22
DILUPBiCGStab:  Solving for h, Initial residual = 0.0026367, Final residual = 1.66697e-06, No Iterations 1
DICPCG:  Solving for p_rgh, Initial residual = 0.0084445, Final residual = 8.31527e-05, No Iterations 19
time step continuity errors : sum local = 5.30078e-06, global = 1.26191e-06, cumulative = -0.000285023
ExecutionTime = 5.65 s  ClockTime = 6 s

Time = 49

DILUPBiCGStab:  Solving for Ux, Initial residual = 0.0080866, Final residual = 3.45227e-05, No Iterations 1
DILUPBiCGStab:  Solving for Uy, Initial residual = 0.0100454, Final residual = 3.77673e-05, No Iterations 1
DILUPBiCGStab:  Solving for Uz, Initial residual = 0.00832383, Final residual = 3.5194e-05, No Iterations 1
DICPCG:  Solving for G, Initial residual = 0.000238214, Final residual = 2.06091e-05, No Iterations 22
DILUPBiCGStab:  Solving for h, Initial residual = 0.00258543, Final residual = 1.64172e-06, No Iterations 1
DICPCG:  Solving for p_rgh, Initial residual = 0.00825213, Final residual = 7.69174e-05, No Iterations 57
time step continuity errors : sum local = 4.88526e-06, global = 7.39139e-08, cumulative = -0.000284949
ExecutionTime = 5.77 s  ClockTime = 6 s

Time = 50

DILUPBiCGStab:  Solving for Ux, Initial residual = 0.00795635, Final residual = 3.40893e-05, No Iterations 1
DILUPBiCGStab:  Solving for Uy, Initial residual = 0.00985704, Final residual = 3.7017e-05, No Iterations 1
DILUPBiCGStab:  Solving for Uz, Initial residual = 0.00819103, Final residual = 3.46491e-05, No Iterations 1
DICPCG:  Solving for G, Initial residual = 0.000233599, Final residual = 2.06351e-05, No Iterations 22
DILUPBiCGStab:  Solving for h, Initial residual = 0.00253687, Final residual = 1.61739e-06, No Iterations 1
DICPCG:  Solving for p_rgh, Initial residual = 0.00808171, Final residual = 7.32554e-05, No Iterations 20
time step continuity errors : sum local = 4.63519e-06, global = 2.60532e-07, cumulative = -0.000284688
ExecutionTime = 5.9 s  ClockTime = 6 s

Time = 51

DILUPBiCGStab:  Solving for Ux, Initial residual = 0.00786123, Final residual = 3.37144e-05, No Iterations 1
DILUPBiCGStab:  Solving for Uy, Initial residual = 0.00968007, Final residual = 3.63214e-05, No Iterations 1
DILUPBiCGStab:  Solving for Uz, Initial residual = 0.0080689, Final residual = 3.40831e-05, No Iterations 1
DICPCG:  Solving for G, Initial residual = 0.00022935, Final residual = 2.06247e-05, No Iterations 22
DILUPBiCGStab:  Solving for h, Initial residual = 0.00249086, Final residual = 1.59363e-06, No Iterations 1
DICPCG:  Solving for p_rgh, Initial residual = 0.00790043, Final residual = 7.52246e-05, No Iterations 19
time step continuity errors : sum local = 4.74336e-06, global = 2.55124e-07, cumulative = -0.000284433
ExecutionTime = 6.01 s  ClockTime = 6 s

Time = 52

DILUPBiCGStab:  Solving for Ux, Initial residual = 0.00774333, Final residual = 3.3205e-05, No Iterations 1
DILUPBiCGStab:  Solving for Uy, Initial residual = 0.00949118, Final residual = 3.55806e-05, No Iterations 1
DILUPBiCGStab:  Solving for Uz, Initial residual = 0.00795521, Final residual = 3.35369e-05, No Iterations 1
DICPCG:  Solving for G, Initial residual = 0.000225371, Final residual = 2.06634e-05, No Iterations 22
DILUPBiCGStab:  Solving for h, Initial residual = 0.00244735, Final residual = 1.57014e-06, No Iterations 1
DICPCG:  Solving for p_rgh, Initial residual = 0.00771805, Final residual = 7.17719e-05, No Iterations 20
time step continuity errors : sum local = 4.51049e-06, global = 7.28836e-07, cumulative = -0.000283705
ExecutionTime = 6.13 s  ClockTime = 6 s

Time = 53

DILUPBiCGStab:  Solving for Ux, Initial residual = 0.00762854, Final residual = 3.27295e-05, No Iterations 1
DILUPBiCGStab:  Solving for Uy, Initial residual = 0.00932065, Final residual = 3.49306e-05, No Iterations 1
DILUPBiCGStab:  Solving for Uz, Initial residual = 0.00784053, Final residual = 3.29834e-05, No Iterations 1
DICPCG:  Solving for G, Initial residual = 0.000221678, Final residual = 2.06026e-05, No Iterations 22
DILUPBiCGStab:  Solving for h, Initial residual = 0.00240614, Final residual = 1.54725e-06, No Iterations 1
DICPCG:  Solving for p_rgh, Initial residual = 0.00753753, Final residual = 7.48874e-05, No Iterations 57
time step continuity errors : sum local = 4.69094e-06, global = 1.03539e-07, cumulative = -0.000283601
ExecutionTime = 6.26 s  ClockTime = 7 s

Time = 54

DILUPBiCGStab:  Solving for Ux, Initial residual = 0.00750629, Final residual = 3.2342e-05, No Iterations 1
DILUPBiCGStab:  Solving for Uy, Initial residual = 0.00915088, Final residual = 3.42678e-05, No Iterations 1
DILUPBiCGStab:  Solving for Uz, Initial residual = 0.00772837, Final residual = 3.24406e-05, No Iterations 1
DICPCG:  Solving for G, Initial residual = 0.000218216, Final residual = 2.06307e-05, No Iterations 22
DILUPBiCGStab:  Solving for h, Initial residual = 0.00236699, Final residual = 1.52506e-06, No Iterations 1
DICPCG:  Solving for p_rgh, Initial residual = 0.00738771, Final residual = 6.91934e-05, No Iterations 19
time step continuity errors : sum local = 4.32002e-06, global = 4.45114e-07, cumulative = -0.000283156
ExecutionTime = 6.37 s  ClockTime = 7 s

Time = 55

DILUPBiCGStab:  Solving for Ux, Initial residual = 0.00742534, Final residual = 3.20094e-05, No Iterations 1
DILUPBiCGStab:  Solving for Uy, Initial residual = 0.00899146, Final residual = 3.36574e-05, No Iterations 1
DILUPBiCGStab:  Solving for Uz, Initial residual = 0.00762332, Final residual = 3.18961e-05, No Iterations 1
DICPCG:  Solving for G, Initial residual = 0.000214962, Final residual = 2.05476e-05, No Iterations 22
DILUPBiCGStab:  Solving for h, Initial residual = 0.0023297, Final residual = 1.50256e-06, No Iterations 1
DICPCG:  Solving for p_rgh, Initial residual = 0.00723802, Final residual = 6.55345e-05, No Iterations 20
time step continuity errors : sum local = 4.07901e-06, global = 7.70556e-07, cumulative = -0.000282385
ExecutionTime = 6.48 s  ClockTime = 7 s

Time = 56

DILUPBiCGStab:  Solving for Ux, Initial residual = 0.00732488, Final residual = 3.15633e-05, No Iterations 1
DILUPBiCGStab:  Solving for Uy, Initial residual = 0.00884008, Final residual = 3.30549e-05, No Iterations 1
DILUPBiCGStab:  Solving for Uz, Initial residual = 0.00751798, Final residual = 3.13766e-05, No Iterations 1
DICPCG:  Solving for G, Initial residual = 0.000211909, Final residual = 2.05594e-05, No Iterations 22
DILUPBiCGStab:  Solving for h, Initial residual = 0.00229412, Final residual = 1.4805e-06, No Iterations 1
DICPCG:  Solving for p_rgh, Initial residual = 0.00707917, Final residual = 6.84624e-05, No Iterations 61
time step continuity errors : sum local = 4.24859e-06, global = 8.05477e-08, cumulative = -0.000282305
ExecutionTime = 6.61 s  ClockTime = 7 s

Time = 57

DILUPBiCGStab:  Solving for Ux, Initial residual = 0.00721522, Final residual = 3.11594e-05, No Iterations 1
DILUPBiCGStab:  Solving for Uy, Initial residual = 0.00868686, Final residual = 3.24241e-05, No Iterations 1
DILUPBiCGStab:  Solving for Uz, Initial residual = 0.0074126, Final residual = 3.08787e-05, No Iterations 1
DICPCG:  Solving for G, Initial residual = 0.000209044, Final residual = 2.04715e-05, No Iterations 22
DILUPBiCGStab:  Solving for h, Initial residual = 0.00226023, Final residual = 1.45948e-06, No Iterations 1
DICPCG:  Solving for p_rgh, Initial residual = 0.00694384, Final residual = 6.06092e-05, No Iterations 19
time step continuity errors : sum local = 3.7499e-06, global = 3.63395e-07, cumulative = -0.000281941
ExecutionTime = 6.71 s  ClockTime = 7 s

Time = 58

DILUPBiCGStab:  Solving for Ux, Initial residual = 0.00712388, Final residual = 3.07368e-05, No Iterations 1
DILUPBiCGStab:  Solving for Uy, Initial residual = 0.00853836, Final residual = 3.18876e-05, No Iterations 1
DILUPBiCGStab:  Solving for Uz, Initial residual = 0.00732192, Final residual = 3.04116e-05, No Iterations 1
DICPCG:  Solving for G, Initial residual = 0.000206359, Final residual = 2.04612e-05, No Iterations 22
DILUPBiCGStab:  Solving for h, Initial residual = 0.00222799, Final residual = 1.43939e-06, No Iterations 1
DICPCG:  Solving for p_rgh, Initial residual = 0.0068014, Final residual = 6.36949e-05, No Iterations 21
time step continuity errors : sum local = 3.92974e-06, global = 6.7333e-07, cumulative = -0.000281268
ExecutionTime = 6.82 s  ClockTime = 7 s

Time = 59

DILUPBiCGStab:  Solving for Ux, Initial residual = 0.0070354, Final residual = 3.03422e-05, No Iterations 1
DILUPBiCGStab:  Solving for Uy, Initial residual = 0.00840667, Final residual = 3.13856e-05, No Iterations 1
DILUPBiCGStab:  Solving for Uz, Initial residual = 0.00722376, Final residual = 2.99357e-05, No Iterations 1
DICPCG:  Solving for G, Initial residual = 0.000203842, Final residual = 2.03789e-05, No Iterations 22
DILUPBiCGStab:  Solving for h, Initial residual = 0.00219737, Final residual = 1.4203e-06, No Iterations 1
DICPCG:  Solving for p_rgh, Initial residual = 0.00666335, Final residual = 6.50885e-05, No Iterations 61
time step continuity errors : sum local = 4.00482e-06, global = 7.09017e-08, cumulative = -0.000281197
ExecutionTime = 6.94 s  ClockTime = 7 s

Time = 60

DILUPBiCGStab:  Solving for Ux, Initial residual = 0.00693738, Final residual = 2.99971e-05, No Iterations 1
DILUPBiCGStab:  Solving for Uy, Initial residual = 0.00826549, Final residual = 3.07977e-05, No Iterations 1
DILUPBiCGStab:  Solving for Uz, Initial residual = 0.00712751, Final residual = 2.94864e-05, No Iterations 1
DICPCG:  Solving for G, Initial residual = 0.000201487, Final residual = 1.68626e-05, No Iterations 23
DILUPBiCGStab:  Solving for h, Initial residual = 0.00216823, Final residual = 1.40213e-06, No Iterations 1
DICPCG:  Solving for p_rgh, Initial residual = 0.00655571, Final residual = 6.29449e-05, No Iterations 19
time step continuity errors : sum local = 3.86233e-06, global = 3.73821e-07, cumulative = -0.000280823
ExecutionTime = 7.06 s  ClockTime = 7 s

Time = 61

DILUPBiCGStab:  Solving for Ux, Initial residual = 0.00685377, Final residual = 2.9596e-05, No Iterations 1
DILUPBiCGStab:  Solving for Uy, Initial residual = 0.00812981, Final residual = 3.02881e-05, No Iterations 1
DILUPBiCGStab:  Solving for Uz, Initial residual = 0.00704357, Final residual = 2.90674e-05, No Iterations 1
DICPCG:  Solving for G, Initial residual = 0.000198799, Final residual = 1.64563e-05, No Iterations 23
DILUPBiCGStab:  Solving for h, Initial residual = 0.00214048, Final residual = 1.38467e-06, No Iterations 1
DICPCG:  Solving for p_rgh, Initial residual = 0.00643211, Final residual = 5.98711e-05, No Iterations 21
time step continuity errors : sum local = 3.66446e-06, global = 7.03713e-07, cumulative = -0.00028012
ExecutionTime = 7.18 s  ClockTime = 7 s

Time = 62

DILUPBiCGStab:  Solving for Ux, Initial residual = 0.00677084, Final residual = 2.9208e-05, No Iterations 1
DILUPBiCGStab:  Solving for Uy, Initial residual = 0.00800991, Final residual = 2.98122e-05, No Iterations 1
DILUPBiCGStab:  Solving for Uz, Initial residual = 0.00695241, Final residual = 2.8639e-05, No Iterations 1
DICPCG:  Solving for G, Initial residual = 0.000196555, Final residual = 1.65229e-05, No Iterations 23
DILUPBiCGStab:  Solving for h, Initial residual = 0.00211403, Final residual = 1.36788e-06, No Iterations 1
DICPCG:  Solving for p_rgh, Initial residual = 0.00630876, Final residual = 5.91622e-05, No Iterations 62
time step continuity errors : sum local = 3.61235e-06, global = 5.28763e-08, cumulative = -0.000280067
ExecutionTime = 7.3 s  ClockTime = 8 s

Time = 63

DILUPBiCGStab:  Solving for Ux, Initial residual = 0.00668261, Final residual = 2.88871e-05, No Iterations 1
DILUPBiCGStab:  Solving for Uy, Initial residual = 0.00788346, Final residual = 2.92753e-05, No Iterations 1
DILUPBiCGStab:  Solving for Uz, Initial residual = 0.00686264, Final residual = 2.8225e-05, No Iterations 1
DICPCG:  Solving for G, Initial residual = 0.000194523, Final residual = 1.6593e-05, No Iterations 23
DILUPBiCGStab:  Solving for h, Initial residual = 0.00208876, Final residual = 1.35177e-06, No Iterations 1
DICPCG:  Solving for p_rgh, Initial residual = 0.00621421, Final residual = 6.12515e-05, No Iterations 19
time step continuity errors : sum local = 3.73076e-06, global = 3.39325e-07, cumulative = -0.000279727
ExecutionTime = 7.42 s  ClockTime = 8 s

Time = 64

DILUPBiCGStab:  Solving for Ux, Initial residual = 0.00660261, Final residual = 2.85031e-05, No Iterations 1
DILUPBiCGStab:  Solving for Uy, Initial residual = 0.00775755, Final residual = 2.88045e-05, No Iterations 1
DILUPBiCGStab:  Solving for Uz, Initial residual = 0.00678598, Final residual = 2.78441e-05, No Iterations 1
DICPCG:  Solving for G, Initial residual = 0.000192632, Final residual = 1.64028e-05, No Iterations 23
DILUPBiCGStab:  Solving for h, Initial residual = 0.00206465, Final residual = 1.33628e-06, No Iterations 1
DICPCG:  Solving for p_rgh, Initial residual = 0.00610068, Final residual = 5.96928e-05, No Iterations 22
time step continuity errors : sum local = 3.62768e-06, global = 6.45543e-07, cumulative = -0.000279082
ExecutionTime = 7.52 s  ClockTime = 8 s

Time = 65

DILUPBiCGStab:  Solving for Ux, Initial residual = 0.00652499, Final residual = 2.81384e-05, No Iterations 1
DILUPBiCGStab:  Solving for Uy, Initial residual = 0.00764913, Final residual = 2.83669e-05, No Iterations 1
DILUPBiCGStab:  Solving for Uz, Initial residual = 0.0067011, Final residual = 2.74463e-05, No Iterations 1
DICPCG:  Solving for G, Initial residual = 0.000190939, Final residual = 1.65467e-05, No Iterations 23
DILUPBiCGStab:  Solving for h, Initial residual = 0.00204163, Final residual = 1.32141e-06, No Iterations 1
DICPCG:  Solving for p_rgh, Initial residual = 0.0059908, Final residual = 5.84071e-05, No Iterations 61
time step continuity errors : sum local = 3.54183e-06, global = 6.21746e-08, cumulative = -0.00027902
ExecutionTime = 7.65 s  ClockTime = 8 s

Time = 66

DILUPBiCGStab:  Solving for Ux, Initial residual = 0.00644469, Final residual = 2.78508e-05, No Iterations 1
DILUPBiCGStab:  Solving for Uy, Initial residual = 0.00753068, Final residual = 2.78703e-05, No Iterations 1
DILUPBiCGStab:  Solving for Uz, Initial residual = 0.00662014, Final residual = 2.70703e-05, No Iterations 1
DICPCG:  Solving for G, Initial residual = 0.000189291, Final residual = 1.64492e-05, No Iterations 23
DILUPBiCGStab:  Solving for h, Initial residual = 0.0020196, Final residual = 1.30722e-06, No Iterations 1
DICPCG:  Solving for p_rgh, Initial residual = 0.00590259, Final residual = 5.21442e-05, No Iterations 20
time step continuity errors : sum local = 3.155e-06, global = 3.50718e-07, cumulative = -0.000278669
ExecutionTime = 7.76 s  ClockTime = 8 s

Time = 67

DILUPBiCGStab:  Solving for Ux, Initial residual = 0.00637514, Final residual = 2.74981e-05, No Iterations 1
DILUPBiCGStab:  Solving for Uy, Initial residual = 0.00741948, Final residual = 2.74471e-05, No Iterations 1
DILUPBiCGStab:  Solving for Uz, Initial residual = 0.00654706, Final residual = 2.67093e-05, No Iterations 1
DICPCG:  Solving for G, Initial residual = 0.000187769, Final residual = 1.64106e-05, No Iterations 23
DILUPBiCGStab:  Solving for h, Initial residual = 0.00199852, Final residual = 1.29358e-06, No Iterations 1
DICPCG:  Solving for p_rgh, Initial residual = 0.00579952, Final residual = 5.64064e-05, No Iterations 24
time step continuity errors : sum local = 3.40586e-06, global = 6.69491e-07, cumulative = -0.000277999
ExecutionTime = 7.86 s  ClockTime = 8 s

Time = 68

DILUPBiCGStab:  Solving for Ux, Initial residual = 0.00629937, Final residual = 2.71285e-05, No Iterations 1
DILUPBiCGStab:  Solving for Uy, Initial residual = 0.00731692, Final residual = 2.70103e-05, No Iterations 1
DILUPBiCGStab:  Solving for Uz, Initial residual = 0.00646941, Final residual = 2.63484e-05, No Iterations 1
DICPCG:  Solving for G, Initial residual = 0.000186361, Final residual = 1.64917e-05, No Iterations 23
DILUPBiCGStab:  Solving for h, Initial residual = 0.00197834, Final residual = 1.28046e-06, No Iterations 1
DICPCG:  Solving for p_rgh, Initial residual = 0.00569814, Final residual = 5.65265e-05, No Iterations 59
time step continuity errors : sum local = 3.4063e-06, global = 6.91087e-08, cumulative = -0.00027793
ExecutionTime = 7.98 s  ClockTime = 8 s

Time = 69

DILUPBiCGStab:  Solving for Ux, Initial residual = 0.00622829, Final residual = 2.6865e-05, No Iterations 1
DILUPBiCGStab:  Solving for Uy, Initial residual = 0.00720766, Final residual = 2.65788e-05, No Iterations 1
DILUPBiCGStab:  Solving for Uz, Initial residual = 0.00639575, Final residual = 2.60049e-05, No Iterations 1
DICPCG:  Solving for G, Initial residual = 0.000184949, Final residual = 1.62698e-05, No Iterations 23
DILUPBiCGStab:  Solving for h, Initial residual = 0.00195895, Final residual = 1.26781e-06, No Iterations 1
DICPCG:  Solving for p_rgh, Initial residual = 0.00561868, Final residual = 5.49831e-05, No Iterations 20
time step continuity errors : sum local = 3.30645e-06, global = 3.31979e-07, cumulative = -0.000277598
ExecutionTime = 8.08 s  ClockTime = 8 s

Time = 70

DILUPBiCGStab:  Solving for Ux, Initial residual = 0.00616864, Final residual = 2.65541e-05, No Iterations 1
DILUPBiCGStab:  Solving for Uy, Initial residual = 0.00711036, Final residual = 2.6201e-05, No Iterations 1
DILUPBiCGStab:  Solving for Uz, Initial residual = 0.00632469, Final residual = 2.56552e-05, No Iterations 1
DICPCG:  Solving for G, Initial residual = 0.00018369, Final residual = 1.64843e-05, No Iterations 23
DILUPBiCGStab:  Solving for h, Initial residual = 0.00194032, Final residual = 1.25559e-06, No Iterations 1
DICPCG:  Solving for p_rgh, Initial residual = 0.00553007, Final residual = 5.34758e-05, No Iterations 26
time step continuity errors : sum local = 3.20978e-06, global = 6.3485e-07, cumulative = -0.000276964
ExecutionTime = 8.21 s  ClockTime = 9 s

Time = 71

DILUPBiCGStab:  Solving for Ux, Initial residual = 0.00609124, Final residual = 2.61855e-05, No Iterations 1
DILUPBiCGStab:  Solving for Uy, Initial residual = 0.00701348, Final residual = 2.57691e-05, No Iterations 1
DILUPBiCGStab:  Solving for Uz, Initial residual = 0.00625311, Final residual = 2.53286e-05, No Iterations 1
DICPCG:  Solving for G, Initial residual = 0.000182474, Final residual = 1.61957e-05, No Iterations 23
DILUPBiCGStab:  Solving for h, Initial residual = 0.00192246, Final residual = 1.24381e-06, No Iterations 1
DICPCG:  Solving for p_rgh, Initial residual = 0.00543589, Final residual = 5.39026e-05, No Iterations 58
time step continuity errors : sum local = 3.22955e-06, global = 5.9593e-08, cumulative = -0.000276904
ExecutionTime = 8.34 s  ClockTime = 9 s

Time = 72

DILUPBiCGStab:  Solving for Ux, Initial residual = 0.00603039, Final residual = 2.59539e-05, No Iterations 1
DILUPBiCGStab:  Solving for Uy, Initial residual = 0.00691267, Final residual = 2.53857e-05, No Iterations 1
DILUPBiCGStab:  Solving for Uz, Initial residual = 0.00618637, Final residual = 2.50169e-05, No Iterations 1
DICPCG:  Solving for G, Initial residual = 0.000181333, Final residual = 1.64751e-05, No Iterations 23
DILUPBiCGStab:  Solving for h, Initial residual = 0.00190533, Final residual = 1.23241e-06, No Iterations 1
DICPCG:  Solving for p_rgh, Initial residual = 0.00536155, Final residual = 4.76264e-05, No Iterations 21
time step continuity errors : sum local = 2.84819e-06, global = 3.21717e-07, cumulative = -0.000276582
ExecutionTime = 8.45 s  ClockTime = 9 s

Time = 73

DILUPBiCGStab:  Solving for Ux, Initial residual = 0.00597573, Final residual = 2.56597e-05, No Iterations 1
DILUPBiCGStab:  Solving for Uy, Initial residual = 0.00682508, Final residual = 2.50443e-05, No Iterations 1
DILUPBiCGStab:  Solving for Uz, Initial residual = 0.00611811, Final residual = 2.46843e-05, No Iterations 1
DICPCG:  Solving for G, Initial residual = 0.000180312, Final residual = 1.61817e-05, No Iterations 23
DILUPBiCGStab:  Solving for h, Initial residual = 0.00188885, Final residual = 1.22139e-06, No Iterations 1
DICPCG:  Solving for p_rgh, Initial residual = 0.00528136, Final residual = 5.24531e-05, No Iterations 27
time step continuity errors : sum local = 3.1315e-06, global = 6.30823e-07, cumulative = -0.000275951
ExecutionTime = 8.57 s  ClockTime = 9 s

Time = 74

DILUPBiCGStab:  Solving for Ux, Initial residual = 0.00590122, Final residual = 2.53024e-05, No Iterations 1
DILUPBiCGStab:  Solving for Uy, Initial residual = 0.00673215, Final residual = 2.46206e-05, No Iterations 1
DILUPBiCGStab:  Solving for Uz, Initial residual = 0.0060524, Final residual = 2.43803e-05, No Iterations 1
DICPCG:  Solving for G, Initial residual = 0.00017927, Final residual = 1.64492e-05, No Iterations 23
DILUPBiCGStab:  Solving for h, Initial residual = 0.001873, Final residual = 1.21072e-06, No Iterations 1
DICPCG:  Solving for p_rgh, Initial residual = 0.00519747, Final residual = 4.96335e-05, No Iterations 59
time step continuity errors : sum local = 2.95831e-06, global = 5.40293e-08, cumulative = -0.000275897
ExecutionTime = 8.69 s  ClockTime = 9 s

Time = 75

DILUPBiCGStab:  Solving for Ux, Initial residual = 0.00584788, Final residual = 2.50948e-05, No Iterations 1
DILUPBiCGStab:  Solving for Uy, Initial residual = 0.006642, Final residual = 2.42699e-05, No Iterations 1
DILUPBiCGStab:  Solving for Uz, Initial residual = 0.00598955, Final residual = 2.40836e-05, No Iterations 1
DICPCG:  Solving for G, Initial residual = 0.000178397, Final residual = 1.61926e-05, No Iterations 23
DILUPBiCGStab:  Solving for h, Initial residual = 0.00185772, Final residual = 1.20043e-06, No Iterations 1
DICPCG:  Solving for p_rgh, Initial residual = 0.00512631, Final residual = 4.79382e-05, No Iterations 21
time step continuity errors : sum local = 2.85244e-06, global = 3.0678e-07, cumulative = -0.000275591
ExecutionTime = 8.8 s  ClockTime = 9 s

Time = 76

DILUPBiCGStab:  Solving for Ux, Initial residual = 0.00579638, Final residual = 2.48111e-05, No Iterations 1
DILUPBiCGStab:  Solving for Uy, Initial residual = 0.00656026, Final residual = 2.39501e-05, No Iterations 1
DILUPBiCGStab:  Solving for Uz, Initial residual = 0.00592609, Final residual = 2.37746e-05, No Iterations 1
DICPCG:  Solving for G, Initial residual = 0.000177465, Final residual = 1.64256e-05, No Iterations 23
DILUPBiCGStab:  Solving for h, Initial residual = 0.00184301, Final residual = 1.1905e-06, No Iterations 1
DICPCG:  Solving for p_rgh, Initial residual = 0.00504984, Final residual = 4.94885e-05, No Iterations 28
time step continuity errors : sum local = 2.94026e-06, global = 6.0906e-07, cumulative = -0.000274982
ExecutionTime = 8.92 s  ClockTime = 9 s

Time = 77

DILUPBiCGStab:  Solving for Ux, Initial residual = 0.00572564, Final residual = 2.44751e-05, No Iterations 1
DILUPBiCGStab:  Solving for Uy, Initial residual = 0.00647155, Final residual = 2.35446e-05, No Iterations 1
DILUPBiCGStab:  Solving for Uz, Initial residual = 0.00586504, Final residual = 2.34949e-05, No Iterations 1
DICPCG:  Solving for G, Initial residual = 0.000176679, Final residual = 1.62261e-05, No Iterations 23
DILUPBiCGStab:  Solving for h, Initial residual = 0.0018288, Final residual = 1.18089e-06, No Iterations 1
DICPCG:  Solving for p_rgh, Initial residual = 0.00497257, Final residual = 4.75345e-05, No Iterations 59
time step continuity errors : sum local = 2.82009e-06, global = 4.79371e-08, cumulative = -0.000274934
ExecutionTime = 9.05 s  ClockTime = 9 s

Time = 78

DILUPBiCGStab:  Solving for Ux, Initial residual = 0.00567916, Final residual = 2.42953e-05, No Iterations 1
DILUPBiCGStab:  Solving for Uy, Initial residual = 0.00639083, Final residual = 2.32323e-05, No Iterations 1
DILUPBiCGStab:  Solving for Uz, Initial residual = 0.00580555, Final residual = 2.32133e-05, No Iterations 1
DICPCG:  Solving for G, Initial residual = 0.000175856, Final residual = 1.64083e-05, No Iterations 23
DILUPBiCGStab:  Solving for h, Initial residual = 0.00181505, Final residual = 1.17167e-06, No Iterations 1
DICPCG:  Solving for p_rgh, Initial residual = 0.0049089, Final residual = 4.74094e-05, No Iterations 21
time step continuity errors : sum local = 2.80841e-06, global = 3.00299e-07, cumulative = -0.000274633
ExecutionTime = 9.16 s  ClockTime = 9 s

Time = 79

DILUPBiCGStab:  Solving for Ux, Initial residual = 0.00563151, Final residual = 2.4026e-05, No Iterations 1
DILUPBiCGStab:  Solving for Uy, Initial residual = 0.00631504, Final residual = 2.29414e-05, No Iterations 1
DILUPBiCGStab:  Solving for Uz, Initial residual = 0.0057459, Final residual = 2.29268e-05, No Iterations 1
DICPCG:  Solving for G, Initial residual = 0.000175142, Final residual = 1.62697e-05, No Iterations 23
DILUPBiCGStab:  Solving for h, Initial residual = 0.00180181, Final residual = 1.16271e-06, No Iterations 1
DICPCG:  Solving for p_rgh, Initial residual = 0.00484102, Final residual = 4.65627e-05, No Iterations 32
time step continuity errors : sum local = 2.75453e-06, global = 6.08274e-07, cumulative = -0.000274025
ExecutionTime = 9.29 s  ClockTime = 10 s

Time = 80

DILUPBiCGStab:  Solving for Ux, Initial residual = 0.00556511, Final residual = 2.3718e-05, No Iterations 1
DILUPBiCGStab:  Solving for Uy, Initial residual = 0.00622487, Final residual = 2.25464e-05, No Iterations 1
DILUPBiCGStab:  Solving for Uz, Initial residual = 0.00568995, Final residual = 2.26761e-05, No Iterations 1
DICPCG:  Solving for G, Initial residual = 0.00017442, Final residual = 1.63948e-05, No Iterations 23
DILUPBiCGStab:  Solving for h, Initial residual = 0.00178898, Final residual = 1.15403e-06, No Iterations 1
DICPCG:  Solving for p_rgh, Initial residual = 0.00476549, Final residual = 4.62182e-05, No Iterations 59
time step continuity errors : sum local = 2.73057e-06, global = 4.23474e-08, cumulative = -0.000273983
ExecutionTime = 9.43 s  ClockTime = 10 s

Time = 81

DILUPBiCGStab:  Solving for Ux, Initial residual = 0.00552343, Final residual = 2.35389e-05, No Iterations 1
DILUPBiCGStab:  Solving for Uy, Initial residual = 0.00616058, Final residual = 2.22978e-05, No Iterations 1
DILUPBiCGStab:  Solving for Uz, Initial residual = 0.00563229, Final residual = 2.24102e-05, No Iterations 1
DICPCG:  Solving for G, Initial residual = 0.000173767, Final residual = 1.63135e-05, No Iterations 23
DILUPBiCGStab:  Solving for h, Initial residual = 0.00177654, Final residual = 1.14563e-06, No Iterations 1
DICPCG:  Solving for p_rgh, Initial residual = 0.00471332, Final residual = 4.40537e-05, No Iterations 22
time step continuity errors : sum local = 2.59914e-06, global = 2.86727e-07, cumulative = -0.000273696
ExecutionTime = 9.53 s  ClockTime = 10 s

Time = 82

DILUPBiCGStab:  Solving for Ux, Initial residual = 0.00547883, Final residual = 2.32805e-05, No Iterations 1
DILUPBiCGStab:  Solving for Uy, Initial residual = 0.00608877, Final residual = 2.20274e-05, No Iterations 1
DILUPBiCGStab:  Solving for Uz, Initial residual = 0.00557584, Final residual = 2.21435e-05, No Iterations 1
DICPCG:  Solving for G, Initial residual = 0.000173131, Final residual = 1.63832e-05, No Iterations 23
DILUPBiCGStab:  Solving for h, Initial residual = 0.00176446, Final residual = 1.13748e-06, No Iterations 1
DICPCG:  Solving for p_rgh, Initial residual = 0.00465251, Final residual = 4.31805e-05, No Iterations 33
time step continuity errors : sum local = 2.54456e-06, global = 5.97968e-07, cumulative = -0.000273098
ExecutionTime = 9.65 s  ClockTime = 10 s

Time = 83

DILUPBiCGStab:  Solving for Ux, Initial residual = 0.00541786, Final residual = 2.30067e-05, No Iterations 1
DILUPBiCGStab:  Solving for Uy, Initial residual = 0.00599869, Final residual = 2.16513e-05, No Iterations 1
DILUPBiCGStab:  Solving for Uz, Initial residual = 0.00552413, Final residual = 2.19106e-05, No Iterations 1
DICPCG:  Solving for G, Initial residual = 0.000172547, Final residual = 1.63537e-05, No Iterations 23
DILUPBiCGStab:  Solving for h, Initial residual = 0.00175273, Final residual = 1.12961e-06, No Iterations 1
DICPCG:  Solving for p_rgh, Initial residual = 0.00457738, Final residual = 4.03253e-05, No Iterations 60
time step continuity errors : sum local = 2.37353e-06, global = 3.76285e-08, cumulative = -0.00027306
ExecutionTime = 9.78 s  ClockTime = 10 s

Time = 84

DILUPBiCGStab:  Solving for Ux, Initial residual = 0.00538018, Final residual = 2.28414e-05, No Iterations 1
DILUPBiCGStab:  Solving for Uy, Initial residual = 0.00594135, Final residual = 2.14262e-05, No Iterations 1
DILUPBiCGStab:  Solving for Uz, Initial residual = 0.005469, Final residual = 2.16572e-05, No Iterations 1
DICPCG:  Solving for G, Initial residual = 0.00017199, Final residual = 1.63727e-05, No Iterations 23
DILUPBiCGStab:  Solving for h, Initial residual = 0.00174135, Final residual = 1.12196e-06, No Iterations 1
DICPCG:  Solving for p_rgh, Initial residual = 0.00453234, Final residual = 4.45612e-05, No Iterations 22
time step continuity errors : sum local = 2.6196e-06, global = 2.82294e-07, cumulative = -0.000272778
ExecutionTime = 9.9 s  ClockTime = 10 s

Time = 85

DILUPBiCGStab:  Solving for Ux, Initial residual = 0.00533811, Final residual = 2.25878e-05, No Iterations 1
DILUPBiCGStab:  Solving for Uy, Initial residual = 0.00587417, Final residual = 2.11699e-05, No Iterations 1
DILUPBiCGStab:  Solving for Uz, Initial residual = 0.00541611, Final residual = 2.14077e-05, No Iterations 1
DICPCG:  Solving for G, Initial residual = 0.000171455, Final residual = 1.63903e-05, No Iterations 23
DILUPBiCGStab:  Solving for h, Initial residual = 0.0017303, Final residual = 1.11449e-06, No Iterations 1
DICPCG:  Solving for p_rgh, Initial residual = 0.00447514, Final residual = 4.25301e-05, No Iterations 33
time step continuity errors : sum local = 2.49748e-06, global = 5.88871e-07, cumulative = -0.000272189
ExecutionTime = 10.01 s  ClockTime = 10 s

Time = 86

DILUPBiCGStab:  Solving for Ux, Initial residual = 0.00528191, Final residual = 2.23333e-05, No Iterations 1
DILUPBiCGStab:  Solving for Uy, Initial residual = 0.00578882, Final residual = 2.08142e-05, No Iterations 1
DILUPBiCGStab:  Solving for Uz, Initial residual = 0.00536717, Final residual = 2.11858e-05, No Iterations 1
DICPCG:  Solving for G, Initial residual = 0.000170965, Final residual = 1.63651e-05, No Iterations 23
DILUPBiCGStab:  Solving for h, Initial residual = 0.00171962, Final residual = 1.10723e-06, No Iterations 1
DICPCG:  Solving for p_rgh, Initial residual = 0.00440555, Final residual = 3.91745e-05, No Iterations 60
time step continuity errors : sum local = 2.29803e-06, global = 3.39733e-08, cumulative = -0.000272155
ExecutionTime = 10.13 s  ClockTime = 10 s

Time = 87

DILUPBiCGStab:  Solving for Ux, Initial residual = 0.00524866, Final residual = 2.21864e-05, No Iterations 1
DILUPBiCGStab:  Solving for Uy, Initial residual = 0.00573575, Final residual = 2.06048e-05, No Iterations 1
DILUPBiCGStab:  Solving for Uz, Initial residual = 0.0053149, Final residual = 2.09445e-05, No Iterations 1
DICPCG:  Solving for G, Initial residual = 0.000170486, Final residual = 1.6426e-05, No Iterations 23
DILUPBiCGStab:  Solving for h, Initial residual = 0.00170923, Final residual = 1.10013e-06, No Iterations 1
DICPCG:  Solving for p_rgh, Initial residual = 0.00436762, Final residual = 4.14377e-05, No Iterations 23
time step continuity errors : sum local = 2.4281e-06, global = 2.76042e-07, cumulative = -0.000271879
ExecutionTime = 10.25 s  ClockTime = 11 s

Time = 88

DILUPBiCGStab:  Solving for Ux, Initial residual = 0.00520892, Final residual = 2.19392e-05, No Iterations 1
DILUPBiCGStab:  Solving for Uy, Initial residual = 0.00567289, Final residual = 2.03653e-05, No Iterations 1
DILUPBiCGStab:  Solving for Uz, Initial residual = 0.00526466, Final residual = 2.07105e-05, No Iterations 1
DICPCG:  Solving for G, Initial residual = 0.000170058, Final residual = 1.63633e-05, No Iterations 23
DILUPBiCGStab:  Solving for h, Initial residual = 0.00169912, Final residual = 1.09322e-06, No Iterations 1
DICPCG:  Solving for p_rgh, Initial residual = 0.00431453, Final residual = 4.18715e-05, No Iterations 33
time step continuity errors : sum local = 2.45118e-06, global = 5.81868e-07, cumulative = -0.000271297
ExecutionTime = 10.37 s  ClockTime = 11 s

Time = 89

DILUPBiCGStab:  Solving for Ux, Initial residual = 0.00515798, Final residual = 2.17095e-05, No Iterations 1
DILUPBiCGStab:  Solving for Uy, Initial residual = 0.00559183, Final residual = 2.00369e-05, No Iterations 1
DILUPBiCGStab:  Solving for Uz, Initial residual = 0.00521838, Final residual = 2.05038e-05, No Iterations 1
DICPCG:  Solving for G, Initial residual = 0.00016962, Final residual = 1.64608e-05, No Iterations 23
DILUPBiCGStab:  Solving for h, Initial residual = 0.00168927, Final residual = 1.08647e-06, No Iterations 1
DICPCG:  Solving for p_rgh, Initial residual = 0.00425125, Final residual = 3.96448e-05, No Iterations 60
time step continuity errors : sum local = 2.3187e-06, global = 3.64067e-08, cumulative = -0.000271261
ExecutionTime = 10.49 s  ClockTime = 11 s

Time = 90

DILUPBiCGStab:  Solving for Ux, Initial residual = 0.00512774, Final residual = 2.15772e-05, No Iterations 1
DILUPBiCGStab:  Solving for Uy, Initial residual = 0.00554254, Final residual = 1.98429e-05, No Iterations 1
DILUPBiCGStab:  Solving for Uz, Initial residual = 0.00516852, Final residual = 2.02772e-05, No Iterations 1
DICPCG:  Solving for G, Initial residual = 0.00016924, Final residual = 1.63688e-05, No Iterations 23
DILUPBiCGStab:  Solving for h, Initial residual = 0.00167967, Final residual = 1.07989e-06, No Iterations 1
DICPCG:  Solving for p_rgh, Initial residual = 0.00421871, Final residual = 3.78245e-05, No Iterations 24
time step continuity errors : sum local = 2.21009e-06, global = 2.75418e-07, cumulative = -0.000270985
ExecutionTime = 10.61 s  ClockTime = 11 s

Time = 91

DILUPBiCGStab:  Solving for Ux, Initial residual = 0.00508897, Final residual = 2.13368e-05, No Iterations 1
DILUPBiCGStab:  Solving for Uy, Initial residual = 0.0054832, Final residual = 1.96157e-05, No Iterations 1
DILUPBiCGStab:  Solving for Uz, Initial residual = 0.0051207, Final residual = 2.00564e-05, No Iterations 1
DICPCG:  Solving for G, Initial residual = 0.000168841, Final residual = 1.64983e-05, No Iterations 23
DILUPBiCGStab:  Solving for h, Initial residual = 0.0016703, Final residual = 1.07345e-06, No Iterations 1
DICPCG:  Solving for p_rgh, Initial residual = 0.0041685, Final residual = 4.1168e-05, No Iterations 33
time step continuity errors : sum local = 2.40347e-06, global = 5.78473e-07, cumulative = -0.000270407
ExecutionTime = 10.73 s  ClockTime = 11 s

Time = 92

DILUPBiCGStab:  Solving for Ux, Initial residual = 0.00504339, Final residual = 2.1131e-05, No Iterations 1
DILUPBiCGStab:  Solving for Uy, Initial residual = 0.0054065, Final residual = 1.93127e-05, No Iterations 1
DILUPBiCGStab:  Solving for Uz, Initial residual = 0.0050767, Final residual = 1.98582e-05, No Iterations 1
DICPCG:  Solving for G, Initial residual = 0.000168507, Final residual = 1.63822e-05, No Iterations 23
DILUPBiCGStab:  Solving for h, Initial residual = 0.00166117, Final residual = 1.06718e-06, No Iterations 1
DICPCG:  Solving for p_rgh, Initial residual = 0.00410977, Final residual = 3.90504e-05, No Iterations 60
time step continuity errors : sum local = 2.27807e-06, global = 3.38255e-08, cumulative = -0.000270373
ExecutionTime = 10.87 s  ClockTime = 11 s

Time = 93

DILUPBiCGStab:  Solving for Ux, Initial residual = 0.00501544, Final residual = 2.10115e-05, No Iterations 1
DILUPBiCGStab:  Solving for Uy, Initial residual = 0.00536041, Final residual = 1.9131e-05, No Iterations 1
DILUPBiCGStab:  Solving for Uz, Initial residual = 0.00502902, Final residual = 1.96429e-05, No Iterations 1
DICPCG:  Solving for G, Initial residual = 0.000168142, Final residual = 1.65384e-05, No Iterations 23
DILUPBiCGStab:  Solving for h, Initial residual = 0.00165229, Final residual = 1.06109e-06, No Iterations 1
DICPCG:  Solving for p_rgh, Initial residual = 0.0040831, Final residual = 3.77324e-05, No Iterations 24
time step continuity errors : sum local = 2.19934e-06, global = 2.69099e-07, cumulative = -0.000270104
ExecutionTime = 10.99 s  ClockTime = 11 s

Time = 94

DILUPBiCGStab:  Solving for Ux, Initial residual = 0.00497807, Final residual = 2.07787e-05, No Iterations 1
DILUPBiCGStab:  Solving for Uy, Initial residual = 0.00530453, Final residual = 1.89172e-05, No Iterations 1
DILUPBiCGStab:  Solving for Uz, Initial residual = 0.00498354, Final residual = 1.94348e-05, No Iterations 1
DICPCG:  Solving for G, Initial residual = 0.000167854, Final residual = 1.64032e-05, No Iterations 23
DILUPBiCGStab:  Solving for h, Initial residual = 0.00164362, Final residual = 1.05513e-06, No Iterations 1
DICPCG:  Solving for p_rgh, Initial residual = 0.00403931, Final residual = 4.03895e-05, No Iterations 33
time step continuity errors : sum local = 2.35261e-06, global = 5.6993e-07, cumulative = -0.000269534
ExecutionTime = 11.1 s  ClockTime = 11 s

Time = 95

DILUPBiCGStab:  Solving for Ux, Initial residual = 0.00493538, Final residual = 2.05843e-05, No Iterations 1
DILUPBiCGStab:  Solving for Uy, Initial residual = 0.00523141, Final residual = 1.86281e-05, No Iterations 1
DILUPBiCGStab:  Solving for Uz, Initial residual = 0.00494179, Final residual = 1.92472e-05, No Iterations 1
DICPCG:  Solving for G, Initial residual = 0.00016753, Final residual = 1.65822e-05, No Iterations 23
DILUPBiCGStab:  Solving for h, Initial residual = 0.00163515, Final residual = 1.0493e-06, No Iterations 1
DICPCG:  Solving for p_rgh, Initial residual = 0.00398686, Final residual = 3.91454e-05, No Iterations 60
time step continuity errors : sum local = 2.27867e-06, global = 3.4728e-08, cumulative = -0.000269499
ExecutionTime = 11.22 s  ClockTime = 12 s

Time = 96

DILUPBiCGStab:  Solving for Ux, Initial residual = 0.00490989, Final residual = 2.0468e-05, No Iterations 1
DILUPBiCGStab:  Solving for Uy, Initial residual = 0.00518819, Final residual = 1.84525e-05, No Iterations 1
DILUPBiCGStab:  Solving for Uz, Initial residual = 0.00489621, Final residual = 1.90421e-05, No Iterations 1
DICPCG:  Solving for G, Initial residual = 0.000167284, Final residual = 1.64325e-05, No Iterations 23
DILUPBiCGStab:  Solving for h, Initial residual = 0.00162686, Final residual = 1.04359e-06, No Iterations 1
DICPCG:  Solving for p_rgh, Initial residual = 0.00396518, Final residual = 3.77778e-05, No Iterations 24
time step continuity errors : sum local = 2.19747e-06, global = 2.68786e-07, cumulative = -0.000269231
ExecutionTime = 11.34 s  ClockTime = 12 s

Time = 97

DILUPBiCGStab:  Solving for Ux, Initial residual = 0.00487427, Final residual = 2.02377e-05, No Iterations 1
DILUPBiCGStab:  Solving for Uy, Initial residual = 0.00513522, Final residual = 1.82497e-05, No Iterations 1
DILUPBiCGStab:  Solving for Uz, Initial residual = 0.00485276, Final residual = 1.88448e-05, No Iterations 1
DICPCG:  Solving for G, Initial residual = 0.000166996, Final residual = 1.66284e-05, No Iterations 23
DILUPBiCGStab:  Solving for h, Initial residual = 0.00161877, Final residual = 1.038e-06, No Iterations 1
[...]
DILUPBiCGStab:  Solving for Uz, Initial residual = 5.31445e-05, Final residual = 1.95145e-07, No Iterations 1
DICPCG:  Solving for G, Initial residual = 8.85704e-05, Final residual = 8.53299e-06, No Iterations 23
DILUPBiCGStab:  Solving for h, Initial residual = 0.000501229, Final residual = 3.21732e-07, No Iterations 1
DICPCG:  Solving for p_rgh, Initial residual = 8.53854e-05, Final residual = 9.73409e-07, No Iterations 65
time step continuity errors : sum local = 8.77569e-08, global = 1.67856e-10, cumulative = -0.000226489
ExecutionTime = 648.88 s  ClockTime = 653 s

Time = 4977

DILUPBiCGStab:  Solving for Ux, Initial residual = 0.000137619, Final residual = 5.45995e-07, No Iterations 1
DILUPBiCGStab:  Solving for Uy, Initial residual = 6.91464e-05, Final residual = 2.73687e-07, No Iterations 1
DILUPBiCGStab:  Solving for Uz, Initial residual = 5.31466e-05, Final residual = 1.95151e-07, No Iterations 1
DICPCG:  Solving for G, Initial residual = 8.85603e-05, Final residual = 8.54208e-06, No Iterations 23
DILUPBiCGStab:  Solving for h, Initial residual = 0.000501175, Final residual = 3.21693e-07, No Iterations 1
DICPCG:  Solving for p_rgh, Initial residual = 8.53701e-05, Final residual = 9.68203e-07, No Iterations 65
time step continuity errors : sum local = 8.72903e-08, global = 1.68522e-10, cumulative = -0.000226489
ExecutionTime = 649 s  ClockTime = 654 s

Time = 4978

DILUPBiCGStab:  Solving for Ux, Initial residual = 0.000137641, Final residual = 5.46092e-07, No Iterations 1
DILUPBiCGStab:  Solving for Uy, Initial residual = 6.91466e-05, Final residual = 2.73716e-07, No Iterations 1
DILUPBiCGStab:  Solving for Uz, Initial residual = 5.31488e-05, Final residual = 1.95154e-07, No Iterations 1
DICPCG:  Solving for G, Initial residual = 8.85562e-05, Final residual = 8.53172e-06, No Iterations 23
DILUPBiCGStab:  Solving for h, Initial residual = 0.00050112, Final residual = 3.21654e-07, No Iterations 1
DICPCG:  Solving for p_rgh, Initial residual = 8.53577e-05, Final residual = 9.69029e-07, No Iterations 65
time step continuity errors : sum local = 8.73676e-08, global = 1.68858e-10, cumulative = -0.000226489
ExecutionTime = 649.13 s  ClockTime = 654 s

Time = 4979

DILUPBiCGStab:  Solving for Ux, Initial residual = 0.000137662, Final residual = 5.46195e-07, No Iterations 1
DILUPBiCGStab:  Solving for Uy, Initial residual = 6.91469e-05, Final residual = 2.73738e-07, No Iterations 1
DILUPBiCGStab:  Solving for Uz, Initial residual = 5.31508e-05, Final residual = 1.95157e-07, No Iterations 1
DICPCG:  Solving for G, Initial residual = 8.85461e-05, Final residual = 8.5408e-06, No Iterations 23
DILUPBiCGStab:  Solving for h, Initial residual = 0.000501066, Final residual = 3.21615e-07, No Iterations 1
DICPCG:  Solving for p_rgh, Initial residual = 8.53507e-05, Final residual = 9.69456e-07, No Iterations 65
time step continuity errors : sum local = 8.74088e-08, global = 1.68479e-10, cumulative = -0.000226488
ExecutionTime = 649.25 s  ClockTime = 654 s

Time = 4980

DILUPBiCGStab:  Solving for Ux, Initial residual = 0.000137683, Final residual = 5.4629e-07, No Iterations 1
DILUPBiCGStab:  Solving for Uy, Initial residual = 6.91473e-05, Final residual = 2.73761e-07, No Iterations 1
DILUPBiCGStab:  Solving for Uz, Initial residual = 5.31527e-05, Final residual = 1.95155e-07, No Iterations 1
DICPCG:  Solving for G, Initial residual = 8.8542e-05, Final residual = 8.53046e-06, No Iterations 23
DILUPBiCGStab:  Solving for h, Initial residual = 0.000501012, Final residual = 3.21575e-07, No Iterations 1
DICPCG:  Solving for p_rgh, Initial residual = 8.53474e-05, Final residual = 9.7097e-07, No Iterations 65
time step continuity errors : sum local = 8.75481e-08, global = 1.68929e-10, cumulative = -0.000226488
ExecutionTime = 649.39 s  ClockTime = 654 s

Time = 4981

DILUPBiCGStab:  Solving for Ux, Initial residual = 0.000137705, Final residual = 5.46384e-07, No Iterations 1
DILUPBiCGStab:  Solving for Uy, Initial residual = 6.91475e-05, Final residual = 2.73794e-07, No Iterations 1
DILUPBiCGStab:  Solving for Uz, Initial residual = 5.31547e-05, Final residual = 1.95152e-07, No Iterations 1
DICPCG:  Solving for G, Initial residual = 8.85319e-05, Final residual = 8.53953e-06, No Iterations 23
DILUPBiCGStab:  Solving for h, Initial residual = 0.000500957, Final residual = 3.21536e-07, No Iterations 1
DICPCG:  Solving for p_rgh, Initial residual = 8.53414e-05, Final residual = 9.72504e-07, No Iterations 65
time step continuity errors : sum local = 8.76892e-08, global = 1.69511e-10, cumulative = -0.000226488
ExecutionTime = 649.52 s  ClockTime = 654 s

Time = 4982

DILUPBiCGStab:  Solving for Ux, Initial residual = 0.000137726, Final residual = 5.4648e-07, No Iterations 1
DILUPBiCGStab:  Solving for Uy, Initial residual = 6.91478e-05, Final residual = 2.73821e-07, No Iterations 1
DILUPBiCGStab:  Solving for Uz, Initial residual = 5.31567e-05, Final residual = 1.9515e-07, No Iterations 1
DICPCG:  Solving for G, Initial residual = 8.85278e-05, Final residual = 8.5292e-06, No Iterations 23
DILUPBiCGStab:  Solving for h, Initial residual = 0.000500903, Final residual = 3.21497e-07, No Iterations 1
DICPCG:  Solving for p_rgh, Initial residual = 8.53401e-05, Final residual = 9.72586e-07, No Iterations 65
time step continuity errors : sum local = 8.76993e-08, global = 1.69912e-10, cumulative = -0.000226488
ExecutionTime = 649.65 s  ClockTime = 654 s

Time = 4983

DILUPBiCGStab:  Solving for Ux, Initial residual = 0.000137747, Final residual = 5.46577e-07, No Iterations 1
DILUPBiCGStab:  Solving for Uy, Initial residual = 6.91482e-05, Final residual = 2.73851e-07, No Iterations 1
DILUPBiCGStab:  Solving for Uz, Initial residual = 5.31587e-05, Final residual = 1.95148e-07, No Iterations 1
DICPCG:  Solving for G, Initial residual = 8.85177e-05, Final residual = 8.53827e-06, No Iterations 23
DILUPBiCGStab:  Solving for h, Initial residual = 0.000500848, Final residual = 3.21458e-07, No Iterations 1
DICPCG:  Solving for p_rgh, Initial residual = 8.53379e-05, Final residual = 9.74881e-07, No Iterations 65
time step continuity errors : sum local = 8.79091e-08, global = 1.70066e-10, cumulative = -0.000226488
ExecutionTime = 649.76 s  ClockTime = 654 s

Time = 4984

DILUPBiCGStab:  Solving for Ux, Initial residual = 0.000137769, Final residual = 5.46673e-07, No Iterations 1
DILUPBiCGStab:  Solving for Uy, Initial residual = 6.91486e-05, Final residual = 2.73878e-07, No Iterations 1
DILUPBiCGStab:  Solving for Uz, Initial residual = 5.31607e-05, Final residual = 1.95147e-07, No Iterations 1
DICPCG:  Solving for G, Initial residual = 8.85136e-05, Final residual = 8.52794e-06, No Iterations 23
DILUPBiCGStab:  Solving for h, Initial residual = 0.000500794, Final residual = 3.21419e-07, No Iterations 1
DICPCG:  Solving for p_rgh, Initial residual = 8.53376e-05, Final residual = 9.67546e-07, No Iterations 65
time step continuity errors : sum local = 8.72505e-08, global = 1.70164e-10, cumulative = -0.000226487
ExecutionTime = 649.89 s  ClockTime = 654 s

Time = 4985

DILUPBiCGStab:  Solving for Ux, Initial residual = 0.00013779, Final residual = 5.4677e-07, No Iterations 1
DILUPBiCGStab:  Solving for Uy, Initial residual = 6.91491e-05, Final residual = 2.73902e-07, No Iterations 1
DILUPBiCGStab:  Solving for Uz, Initial residual = 5.31627e-05, Final residual = 1.95145e-07, No Iterations 1
DICPCG:  Solving for G, Initial residual = 8.85035e-05, Final residual = 8.537e-06, No Iterations 23
DILUPBiCGStab:  Solving for h, Initial residual = 0.00050074, Final residual = 3.2138e-07, No Iterations 1
DICPCG:  Solving for p_rgh, Initial residual = 8.53414e-05, Final residual = 9.71819e-07, No Iterations 65
time step continuity errors : sum local = 8.76386e-08, global = 1.70906e-10, cumulative = -0.000226487
ExecutionTime = 650 s  ClockTime = 655 s

Time = 4986

DILUPBiCGStab:  Solving for Ux, Initial residual = 0.000137811, Final residual = 5.46862e-07, No Iterations 1
DILUPBiCGStab:  Solving for Uy, Initial residual = 6.91495e-05, Final residual = 2.73936e-07, No Iterations 1
DILUPBiCGStab:  Solving for Uz, Initial residual = 5.31647e-05, Final residual = 1.95142e-07, No Iterations 1
DICPCG:  Solving for G, Initial residual = 8.84994e-05, Final residual = 8.52669e-06, No Iterations 23
DILUPBiCGStab:  Solving for h, Initial residual = 0.000500685, Final residual = 3.21341e-07, No Iterations 1
DICPCG:  Solving for p_rgh, Initial residual = 8.53397e-05, Final residual = 9.73444e-07, No Iterations 65
time step continuity errors : sum local = 8.77879e-08, global = 1.70929e-10, cumulative = -0.000226487
ExecutionTime = 650.13 s  ClockTime = 655 s

Time = 4987

DILUPBiCGStab:  Solving for Ux, Initial residual = 0.000137833, Final residual = 5.46959e-07, No Iterations 1
DILUPBiCGStab:  Solving for Uy, Initial residual = 6.915e-05, Final residual = 2.73961e-07, No Iterations 1
DILUPBiCGStab:  Solving for Uz, Initial residual = 5.31667e-05, Final residual = 1.9514e-07, No Iterations 1
DICPCG:  Solving for G, Initial residual = 8.84893e-05, Final residual = 8.53574e-06, No Iterations 23
DILUPBiCGStab:  Solving for h, Initial residual = 0.000500631, Final residual = 3.21302e-07, No Iterations 1
DICPCG:  Solving for p_rgh, Initial residual = 8.53436e-05, Final residual = 9.71668e-07, No Iterations 65
time step continuity errors : sum local = 8.76305e-08, global = 1.714e-10, cumulative = -0.000226487
ExecutionTime = 650.26 s  ClockTime = 655 s

Time = 4988

DILUPBiCGStab:  Solving for Ux, Initial residual = 0.000137854, Final residual = 5.47049e-07, No Iterations 1
DILUPBiCGStab:  Solving for Uy, Initial residual = 6.91503e-05, Final residual = 2.7399e-07, No Iterations 1
DILUPBiCGStab:  Solving for Uz, Initial residual = 5.31688e-05, Final residual = 1.95137e-07, No Iterations 1
DICPCG:  Solving for G, Initial residual = 8.84852e-05, Final residual = 8.52544e-06, No Iterations 23
DILUPBiCGStab:  Solving for h, Initial residual = 0.000500577, Final residual = 3.21262e-07, No Iterations 1
DICPCG:  Solving for p_rgh, Initial residual = 8.53463e-05, Final residual = 9.73417e-07, No Iterations 65
time step continuity errors : sum local = 8.77911e-08, global = 1.71484e-10, cumulative = -0.000226487
ExecutionTime = 650.37 s  ClockTime = 655 s

Time = 4989

DILUPBiCGStab:  Solving for Ux, Initial residual = 0.000137876, Final residual = 5.47147e-07, No Iterations 1
DILUPBiCGStab:  Solving for Uy, Initial residual = 6.91508e-05, Final residual = 2.74015e-07, No Iterations 1
DILUPBiCGStab:  Solving for Uz, Initial residual = 5.31708e-05, Final residual = 1.95136e-07, No Iterations 1
DICPCG:  Solving for G, Initial residual = 8.84752e-05, Final residual = 8.53448e-06, No Iterations 23
DILUPBiCGStab:  Solving for h, Initial residual = 0.000500522, Final residual = 3.21223e-07, No Iterations 1
DICPCG:  Solving for p_rgh, Initial residual = 8.53507e-05, Final residual = 9.62873e-07, No Iterations 65
time step continuity errors : sum local = 8.68429e-08, global = 1.71656e-10, cumulative = -0.000226487
ExecutionTime = 650.49 s  ClockTime = 655 s

Time = 4990

DILUPBiCGStab:  Solving for Ux, Initial residual = 0.000137897, Final residual = 5.47238e-07, No Iterations 1
DILUPBiCGStab:  Solving for Uy, Initial residual = 6.91512e-05, Final residual = 2.74039e-07, No Iterations 1
DILUPBiCGStab:  Solving for Uz, Initial residual = 5.31728e-05, Final residual = 1.95134e-07, No Iterations 1
DICPCG:  Solving for G, Initial residual = 8.84711e-05, Final residual = 8.52418e-06, No Iterations 23
DILUPBiCGStab:  Solving for h, Initial residual = 0.000500468, Final residual = 3.21184e-07, No Iterations 1
DICPCG:  Solving for p_rgh, Initial residual = 8.53575e-05, Final residual = 9.68604e-07, No Iterations 65
time step continuity errors : sum local = 8.73626e-08, global = 1.72715e-10, cumulative = -0.000226486
ExecutionTime = 650.64 s  ClockTime = 655 s

Time = 4991

DILUPBiCGStab:  Solving for Ux, Initial residual = 0.000137919, Final residual = 5.47334e-07, No Iterations 1
DILUPBiCGStab:  Solving for Uy, Initial residual = 6.91518e-05, Final residual = 2.7407e-07, No Iterations 1
DILUPBiCGStab:  Solving for Uz, Initial residual = 5.31749e-05, Final residual = 1.95131e-07, No Iterations 1
DICPCG:  Solving for G, Initial residual = 8.8461e-05, Final residual = 8.53323e-06, No Iterations 23
DILUPBiCGStab:  Solving for h, Initial residual = 0.000500414, Final residual = 3.21145e-07, No Iterations 1
DICPCG:  Solving for p_rgh, Initial residual = 8.53579e-05, Final residual = 9.67221e-07, No Iterations 65
time step continuity errors : sum local = 8.72406e-08, global = 1.7235e-10, cumulative = -0.000226486
ExecutionTime = 650.75 s  ClockTime = 655 s

Time = 4992

DILUPBiCGStab:  Solving for Ux, Initial residual = 0.00013794, Final residual = 5.4743e-07, No Iterations 1
DILUPBiCGStab:  Solving for Uy, Initial residual = 6.91526e-05, Final residual = 2.74098e-07, No Iterations 1
DILUPBiCGStab:  Solving for Uz, Initial residual = 5.31769e-05, Final residual = 1.9513e-07, No Iterations 1
DICPCG:  Solving for G, Initial residual = 8.8457e-05, Final residual = 8.52293e-06, No Iterations 23
DILUPBiCGStab:  Solving for h, Initial residual = 0.000500359, Final residual = 3.21106e-07, No Iterations 1
DICPCG:  Solving for p_rgh, Initial residual = 8.53599e-05, Final residual = 9.67617e-07, No Iterations 65
time step continuity errors : sum local = 8.72791e-08, global = 1.7306e-10, cumulative = -0.000226486
ExecutionTime = 650.88 s  ClockTime = 655 s

Time = 4993

DILUPBiCGStab:  Solving for Ux, Initial residual = 0.000137961, Final residual = 5.47521e-07, No Iterations 1
DILUPBiCGStab:  Solving for Uy, Initial residual = 6.9153e-05, Final residual = 2.74129e-07, No Iterations 1
DILUPBiCGStab:  Solving for Uz, Initial residual = 5.3179e-05, Final residual = 1.95128e-07, No Iterations 1
DICPCG:  Solving for G, Initial residual = 8.84469e-05, Final residual = 8.53198e-06, No Iterations 23
DILUPBiCGStab:  Solving for h, Initial residual = 0.000500305, Final residual = 3.21067e-07, No Iterations 1
DICPCG:  Solving for p_rgh, Initial residual = 8.53623e-05, Final residual = 9.72373e-07, No Iterations 65
time step continuity errors : sum local = 8.77108e-08, global = 1.73012e-10, cumulative = -0.000226486
ExecutionTime = 651.02 s  ClockTime = 656 s

Time = 4994

DILUPBiCGStab:  Solving for Ux, Initial residual = 0.000137983, Final residual = 5.47616e-07, No Iterations 1
DILUPBiCGStab:  Solving for Uy, Initial residual = 6.91537e-05, Final residual = 2.74156e-07, No Iterations 1
DILUPBiCGStab:  Solving for Uz, Initial residual = 5.31809e-05, Final residual = 1.95127e-07, No Iterations 1
DICPCG:  Solving for G, Initial residual = 8.84428e-05, Final residual = 8.52169e-06, No Iterations 23
DILUPBiCGStab:  Solving for h, Initial residual = 0.00050025, Final residual = 3.21028e-07, No Iterations 1
DICPCG:  Solving for p_rgh, Initial residual = 8.53704e-05, Final residual = 9.673e-07, No Iterations 65
time step continuity errors : sum local = 8.7256e-08, global = 1.73498e-10, cumulative = -0.000226486
ExecutionTime = 651.14 s  ClockTime = 656 s

Time = 4995

DILUPBiCGStab:  Solving for Ux, Initial residual = 0.000138004, Final residual = 5.4771e-07, No Iterations 1
DILUPBiCGStab:  Solving for Uy, Initial residual = 6.91543e-05, Final residual = 2.74189e-07, No Iterations 1
DILUPBiCGStab:  Solving for Uz, Initial residual = 5.3183e-05, Final residual = 1.95123e-07, No Iterations 1
DICPCG:  Solving for G, Initial residual = 8.84328e-05, Final residual = 8.53074e-06, No Iterations 23
DILUPBiCGStab:  Solving for h, Initial residual = 0.000500196, Final residual = 3.20989e-07, No Iterations 1
DICPCG:  Solving for p_rgh, Initial residual = 8.53714e-05, Final residual = 9.73892e-07, No Iterations 65
time step continuity errors : sum local = 8.78535e-08, global = 1.7384e-10, cumulative = -0.000226486
ExecutionTime = 651.27 s  ClockTime = 656 s

Time = 4996

DILUPBiCGStab:  Solving for Ux, Initial residual = 0.000138026, Final residual = 5.47804e-07, No Iterations 1
DILUPBiCGStab:  Solving for Uy, Initial residual = 6.9155e-05, Final residual = 2.74215e-07, No Iterations 1
DILUPBiCGStab:  Solving for Uz, Initial residual = 5.3185e-05, Final residual = 1.95121e-07, No Iterations 1
DICPCG:  Solving for G, Initial residual = 8.84287e-05, Final residual = 8.52044e-06, No Iterations 23
DILUPBiCGStab:  Solving for h, Initial residual = 0.000500142, Final residual = 3.2095e-07, No Iterations 1
DICPCG:  Solving for p_rgh, Initial residual = 8.53753e-05, Final residual = 9.71578e-07, No Iterations 65
time step continuity errors : sum local = 8.76475e-08, global = 1.74099e-10, cumulative = -0.000226485
ExecutionTime = 651.4 s  ClockTime = 656 s

Time = 4997

DILUPBiCGStab:  Solving for Ux, Initial residual = 0.000138047, Final residual = 5.47899e-07, No Iterations 1
DILUPBiCGStab:  Solving for Uy, Initial residual = 6.91556e-05, Final residual = 2.74241e-07, No Iterations 1
DILUPBiCGStab:  Solving for Uz, Initial residual = 5.31871e-05, Final residual = 1.95119e-07, No Iterations 1
DICPCG:  Solving for G, Initial residual = 8.84187e-05, Final residual = 8.52949e-06, No Iterations 23
DILUPBiCGStab:  Solving for h, Initial residual = 0.000500088, Final residual = 3.20911e-07, No Iterations 1
DICPCG:  Solving for p_rgh, Initial residual = 8.5382e-05, Final residual = 9.7652e-07, No Iterations 65
time step continuity errors : sum local = 8.80961e-08, global = 1.74347e-10, cumulative = -0.000226485
ExecutionTime = 651.52 s  ClockTime = 656 s

Time = 4998

DILUPBiCGStab:  Solving for Ux, Initial residual = 0.000138069, Final residual = 5.47995e-07, No Iterations 1
DILUPBiCGStab:  Solving for Uy, Initial residual = 6.91564e-05, Final residual = 2.74272e-07, No Iterations 1
DILUPBiCGStab:  Solving for Uz, Initial residual = 5.31892e-05, Final residual = 1.95117e-07, No Iterations 1
DICPCG:  Solving for G, Initial residual = 8.84146e-05, Final residual = 8.5192e-06, No Iterations 23
DILUPBiCGStab:  Solving for h, Initial residual = 0.000500033, Final residual = 3.20872e-07, No Iterations 1
DICPCG:  Solving for p_rgh, Initial residual = 8.53839e-05, Final residual = 9.67827e-07, No Iterations 65
time step continuity errors : sum local = 8.73147e-08, global = 1.74831e-10, cumulative = -0.000226485
ExecutionTime = 651.65 s  ClockTime = 656 s

Time = 4999

DILUPBiCGStab:  Solving for Ux, Initial residual = 0.00013809, Final residual = 5.48089e-07, No Iterations 1
DILUPBiCGStab:  Solving for Uy, Initial residual = 6.9157e-05, Final residual = 2.74298e-07, No Iterations 1
DILUPBiCGStab:  Solving for Uz, Initial residual = 5.31913e-05, Final residual = 1.95115e-07, No Iterations 1
DICPCG:  Solving for G, Initial residual = 8.84046e-05, Final residual = 8.52824e-06, No Iterations 23
DILUPBiCGStab:  Solving for h, Initial residual = 0.000499979, Final residual = 3.20833e-07, No Iterations 1
DICPCG:  Solving for p_rgh, Initial residual = 8.53915e-05, Final residual = 9.74899e-07, No Iterations 65
time step continuity errors : sum local = 8.79555e-08, global = 1.748e-10, cumulative = -0.000226485
ExecutionTime = 651.78 s  ClockTime = 656 s

Time = 5000

DILUPBiCGStab:  Solving for Ux, Initial residual = 0.000138111, Final residual = 5.48178e-07, No Iterations 1
DILUPBiCGStab:  Solving for Uy, Initial residual = 6.91578e-05, Final residual = 2.74327e-07, No Iterations 1
DILUPBiCGStab:  Solving for Uz, Initial residual = 5.31934e-05, Final residual = 1.95113e-07, No Iterations 1
DICPCG:  Solving for G, Initial residual = 8.84005e-05, Final residual = 8.51796e-06, No Iterations 23
DILUPBiCGStab:  Solving for h, Initial residual = 0.000499925, Final residual = 3.20794e-07, No Iterations 1
DICPCG:  Solving for p_rgh, Initial residual = 8.53956e-05, Final residual = 9.69425e-07, No Iterations 65
time step continuity errors : sum local = 8.74644e-08, global = 1.75257e-10, cumulative = -0.000226485
ExecutionTime = 651.92 s  ClockTime = 656 s

End

Finalising parallel run
