/*---------------------------------------------------------------------------*\
  =========                 |
  \\      /  F ield         | OpenFOAM: The Open Source CFD Toolbox
   \\    /   O peration     | Website:  https://openfoam.org
    \\  /    A nd           | Version:  9
     \\/     M anipulation  |
\*---------------------------------------------------------------------------*/
Build  : 9-89839ae3b8cd
Exec   : buoyantSimpleFoam -parallel
Date   : Apr 08 2022
Time   : 12:07:40
Host   : "0b4a0c9cd4c1"
PID    : 12500
I/O    : uncollated
Case   : /home/openfoam/STL_ThermalZones/STL_IGU_28_N2_AER1
nProcs : 16
Slaves : 
15
(
"0b4a0c9cd4c1.12501"
"0b4a0c9cd4c1.12502"
"0b4a0c9cd4c1.12503"
"0b4a0c9cd4c1.12504"
"0b4a0c9cd4c1.12505"
"0b4a0c9cd4c1.12506"
"0b4a0c9cd4c1.12507"
"0b4a0c9cd4c1.12508"
"0b4a0c9cd4c1.12509"
"0b4a0c9cd4c1.12510"
"0b4a0c9cd4c1.12511"
"0b4a0c9cd4c1.12512"
"0b4a0c9cd4c1.12513"
"0b4a0c9cd4c1.12514"
"0b4a0c9cd4c1.12515"
)

Pstream initialised with:
    floatTransfer      : 0
    nProcsSimpleSum    : 0
    commsType          : nonBlocking
    polling iterations : 0
sigFpe : Enabling floating point exception trapping (FOAM_SIGFPE).
fileModificationChecking : Monitoring run-time modified files using timeStampMaster (fileModificationSkew 10)
allowSystemOperations : Allowing user-supplied system call operations

// * * * * * * * * * * * * * * * * * * * * * * * * * * * * * * * * * * * * * //
Create time

Create mesh for time = 0


SIMPLE: Convergence criteria found
        p_rgh: tolerance 0.0001
        U: tolerance 0.0001
        h: tolerance 0.0001
        G: tolerance 1e-05
        "(k|epsilon|omega)": tolerance 0.0001

Reading thermophysical properties

Selecting thermodynamics package 
{
    type            heRhoThermo;
    mixture         pureMixture;
    transport       const;
    thermo          hConst;
    equationOfState perfectGas;
    specie          specie;
    energy          sensibleEnthalpy;
}

Reading field U

Reading/calculating face flux field phi

Creating turbulence model

Selecting turbulence model type RAS
Selecting RAS turbulence model kEpsilon
RAS
{
    model           kEpsilon;
    turbulence      off;
    printCoeffs     on;
    Cmu             0.09;
    C1              1.44;
    C2              1.92;
    C3              0;
    sigmak          1;
    sigmaEps        1.3;
}

Creating thermophysical transport model

Selecting thermophysical transport type RAS
Selecting default RAS thermophysical transport model unityLewisEddyDiffusivity

Reading g

Reading hRef
Calculating field g.h


Reading pRef
Reading field p_rgh

No MRF models present

Creating fvModels from "constant/fvModels"

Selecting finite volume model type radiation
    Name: radiation
Selecting radiationModel P1
Selecting absorptionEmissionModel constant
Selecting scatterModel none
Selecting soot model none
--> FOAM Warning : Creating fvConstraints from "system/fvOptions"

Selecting finite volume constraint type limitTemperature
    Name: limitTemperature
    - selecting all cells
    - selected 237650 cell(s) with volume 38.8151

Starting time loop

Time = 1

DILUPBiCGStab:  Solving for Ux, Initial residual = 1, Final residual = 0.00325782, No Iterations 1
DILUPBiCGStab:  Solving for Uy, Initial residual = 1, Final residual = 0.00317327, No Iterations 1
DILUPBiCGStab:  Solving for Uz, Initial residual = 1, Final residual = 0.00285898, No Iterations 1
DICPCG:  Solving for G, Initial residual = 1, Final residual = 0.0897243, No Iterations 32
DILUPBiCGStab:  Solving for h, Initial residual = 1, Final residual = 0.00689637, No Iterations 1
DICPCG:  Solving for p_rgh, Initial residual = 0.660719, Final residual = 0.00562112, No Iterations 68
time step continuity errors : sum local = 0.020285, global = 2.10952e-05, cumulative = 2.10952e-05
ExecutionTime = 0.32 s  ClockTime = 1 s

Time = 2

DILUPBiCGStab:  Solving for Ux, Initial residual = 0.380232, Final residual = 0.000941212, No Iterations 1
DILUPBiCGStab:  Solving for Uy, Initial residual = 0.309306, Final residual = 0.000738551, No Iterations 1
DILUPBiCGStab:  Solving for Uz, Initial residual = 0.229009, Final residual = 0.00066797, No Iterations 1
DICPCG:  Solving for G, Initial residual = 0.773046, Final residual = 0.0742454, No Iterations 20
DILUPBiCGStab:  Solving for h, Initial residual = 0.0457662, Final residual = 0.000269256, No Iterations 1
DICPCG:  Solving for p_rgh, Initial residual = 0.818913, Final residual = 0.00709005, No Iterations 73
time step continuity errors : sum local = 0.00801829, global = 9.76768e-06, cumulative = 3.08628e-05
ExecutionTime = 0.53 s  ClockTime = 1 s

Time = 3

DILUPBiCGStab:  Solving for Ux, Initial residual = 0.301364, Final residual = 0.000784871, No Iterations 1
DILUPBiCGStab:  Solving for Uy, Initial residual = 0.300589, Final residual = 0.000906539, No Iterations 1
DILUPBiCGStab:  Solving for Uz, Initial residual = 0.920457, Final residual = 0.00232448, No Iterations 1
DICPCG:  Solving for G, Initial residual = 0.41103, Final residual = 0.0384314, No Iterations 16
DILUPBiCGStab:  Solving for h, Initial residual = 0.0319011, Final residual = 0.000200274, No Iterations 1
DICPCG:  Solving for p_rgh, Initial residual = 0.812693, Final residual = 0.00806681, No Iterations 66
time step continuity errors : sum local = 0.00846496, global = -6.99791e-05, cumulative = -3.91163e-05
ExecutionTime = 0.74 s  ClockTime = 1 s

Time = 4

DILUPBiCGStab:  Solving for Ux, Initial residual = 0.288147, Final residual = 0.000749158, No Iterations 1
DILUPBiCGStab:  Solving for Uy, Initial residual = 0.264082, Final residual = 0.000732249, No Iterations 1
DILUPBiCGStab:  Solving for Uz, Initial residual = 0.173753, Final residual = 0.000474715, No Iterations 1
DICPCG:  Solving for G, Initial residual = 0.0822908, Final residual = 0.00807646, No Iterations 15
DILUPBiCGStab:  Solving for h, Initial residual = 0.026302, Final residual = 0.000172751, No Iterations 1
DICPCG:  Solving for p_rgh, Initial residual = 0.653649, Final residual = 0.00624463, No Iterations 71
time step continuity errors : sum local = 0.00450415, global = 1.17671e-07, cumulative = -3.89986e-05
ExecutionTime = 0.97 s  ClockTime = 1 s

Time = 5

DILUPBiCGStab:  Solving for Ux, Initial residual = 0.246395, Final residual = 0.000618145, No Iterations 1
DILUPBiCGStab:  Solving for Uy, Initial residual = 0.244071, Final residual = 0.000670555, No Iterations 1
DILUPBiCGStab:  Solving for Uz, Initial residual = 0.800887, Final residual = 0.00299858, No Iterations 1
DICPCG:  Solving for G, Initial residual = 0.0171595, Final residual = 0.00171168, No Iterations 13
DILUPBiCGStab:  Solving for h, Initial residual = 0.0221631, Final residual = 0.000150205, No Iterations 1
DICPCG:  Solving for p_rgh, Initial residual = 0.690153, Final residual = 0.00683705, No Iterations 70
time step continuity errors : sum local = 0.00276252, global = -2.03204e-06, cumulative = -4.10306e-05
ExecutionTime = 1.2 s  ClockTime = 1 s

Time = 6

DILUPBiCGStab:  Solving for Ux, Initial residual = 0.225375, Final residual = 0.000574526, No Iterations 1
DILUPBiCGStab:  Solving for Uy, Initial residual = 0.231999, Final residual = 0.000605686, No Iterations 1
DILUPBiCGStab:  Solving for Uz, Initial residual = 0.309335, Final residual = 0.000919424, No Iterations 1
DICPCG:  Solving for G, Initial residual = 0.00635977, Final residual = 0.000567689, No Iterations 26
DILUPBiCGStab:  Solving for h, Initial residual = 0.01903, Final residual = 0.000134268, No Iterations 1
DICPCG:  Solving for p_rgh, Initial residual = 0.650815, Final residual = 0.00585093, No Iterations 69
time step continuity errors : sum local = 0.00149202, global = -6.85323e-07, cumulative = -4.17159e-05
ExecutionTime = 1.42 s  ClockTime = 2 s

Time = 7

DILUPBiCGStab:  Solving for Ux, Initial residual = 0.151096, Final residual = 0.000384911, No Iterations 1
DILUPBiCGStab:  Solving for Uy, Initial residual = 0.150199, Final residual = 0.00038481, No Iterations 1
DILUPBiCGStab:  Solving for Uz, Initial residual = 0.492617, Final residual = 0.00162648, No Iterations 1
DICPCG:  Solving for G, Initial residual = 0.00387712, Final residual = 0.00035757, No Iterations 25
DILUPBiCGStab:  Solving for h, Initial residual = 0.0165896, Final residual = 0.00012153, No Iterations 1
DICPCG:  Solving for p_rgh, Initial residual = 0.572991, Final residual = 0.00516909, No Iterations 67
time step continuity errors : sum local = 0.000801141, global = 2.6119e-07, cumulative = -4.14548e-05
ExecutionTime = 1.65 s  ClockTime = 2 s

Time = 8

DILUPBiCGStab:  Solving for Ux, Initial residual = 0.0812483, Final residual = 0.000222522, No Iterations 1
DILUPBiCGStab:  Solving for Uy, Initial residual = 0.100938, Final residual = 0.000268067, No Iterations 1
DILUPBiCGStab:  Solving for Uz, Initial residual = 0.252926, Final residual = 0.000710246, No Iterations 1
DICPCG:  Solving for G, Initial residual = 0.00325307, Final residual = 0.000307269, No Iterations 25
DILUPBiCGStab:  Solving for h, Initial residual = 0.0145874, Final residual = 0.000110261, No Iterations 1
DICPCG:  Solving for p_rgh, Initial residual = 0.507063, Final residual = 0.00415457, No Iterations 69
time step continuity errors : sum local = 0.000449884, global = -9.34605e-08, cumulative = -4.15482e-05
ExecutionTime = 1.87 s  ClockTime = 2 s

Time = 9

DILUPBiCGStab:  Solving for Ux, Initial residual = 0.0716315, Final residual = 0.000187323, No Iterations 1
DILUPBiCGStab:  Solving for Uy, Initial residual = 0.0816087, Final residual = 0.000223182, No Iterations 1
DILUPBiCGStab:  Solving for Uz, Initial residual = 0.180902, Final residual = 0.00059254, No Iterations 1
DICPCG:  Solving for G, Initial residual = 0.00279691, Final residual = 0.000274007, No Iterations 25
DILUPBiCGStab:  Solving for h, Initial residual = 0.0129553, Final residual = 0.000100617, No Iterations 1
DICPCG:  Solving for p_rgh, Initial residual = 0.345008, Final residual = 0.00323887, No Iterations 61
time step continuity errors : sum local = 0.000263271, global = -2.42689e-07, cumulative = -4.17909e-05
ExecutionTime = 2.08 s  ClockTime = 2 s

Time = 10

DILUPBiCGStab:  Solving for Ux, Initial residual = 0.0424253, Final residual = 9.59589e-05, No Iterations 1
DILUPBiCGStab:  Solving for Uy, Initial residual = 0.0587881, Final residual = 0.000145172, No Iterations 1
DILUPBiCGStab:  Solving for Uz, Initial residual = 0.133991, Final residual = 0.000428277, No Iterations 1
DICPCG:  Solving for G, Initial residual = 0.00243413, Final residual = 0.000227061, No Iterations 26
DILUPBiCGStab:  Solving for h, Initial residual = 0.0116343, Final residual = 9.22893e-05, No Iterations 1
DICPCG:  Solving for p_rgh, Initial residual = 0.2746, Final residual = 0.00226282, No Iterations 68
time step continuity errors : sum local = 0.000155123, global = 1.72913e-08, cumulative = -4.17736e-05
ExecutionTime = 2.31 s  ClockTime = 3 s

Time = 11

DILUPBiCGStab:  Solving for Ux, Initial residual = 0.0408433, Final residual = 9.37401e-05, No Iterations 1
DILUPBiCGStab:  Solving for Uy, Initial residual = 0.0525622, Final residual = 0.000122218, No Iterations 1
DILUPBiCGStab:  Solving for Uz, Initial residual = 0.0551221, Final residual = 0.00017117, No Iterations 1
DICPCG:  Solving for G, Initial residual = 0.002138, Final residual = 0.000199811, No Iterations 26
DILUPBiCGStab:  Solving for h, Initial residual = 0.0105405, Final residual = 8.51783e-05, No Iterations 1
DICPCG:  Solving for p_rgh, Initial residual = 0.163484, Final residual = 0.00151819, No Iterations 23
time step continuity errors : sum local = 8.99945e-05, global = 2.52936e-05, cumulative = -1.648e-05
ExecutionTime = 2.54 s  ClockTime = 3 s

Time = 12

DILUPBiCGStab:  Solving for Ux, Initial residual = 0.0288609, Final residual = 6.27793e-05, No Iterations 1
DILUPBiCGStab:  Solving for Uy, Initial residual = 0.0389943, Final residual = 8.00839e-05, No Iterations 1
DILUPBiCGStab:  Solving for Uz, Initial residual = 0.0576728, Final residual = 0.00017726, No Iterations 1
DICPCG:  Solving for G, Initial residual = 0.00188933, Final residual = 0.000180072, No Iterations 26
DILUPBiCGStab:  Solving for h, Initial residual = 0.00963341, Final residual = 7.89317e-05, No Iterations 1
DICPCG:  Solving for p_rgh, Initial residual = 0.124456, Final residual = 0.00120593, No Iterations 66
time step continuity errors : sum local = 6.59147e-05, global = -1.00797e-07, cumulative = -1.65808e-05
ExecutionTime = 2.77 s  ClockTime = 3 s

Time = 13

DILUPBiCGStab:  Solving for Ux, Initial residual = 0.0255455, Final residual = 5.89993e-05, No Iterations 1
DILUPBiCGStab:  Solving for Uy, Initial residual = 0.0351284, Final residual = 7.70426e-05, No Iterations 1
DILUPBiCGStab:  Solving for Uz, Initial residual = 0.0315361, Final residual = 8.64523e-05, No Iterations 1
DICPCG:  Solving for G, Initial residual = 0.00168992, Final residual = 0.000157268, No Iterations 26
DILUPBiCGStab:  Solving for h, Initial residual = 0.00885179, Final residual = 7.34144e-05, No Iterations 1
DICPCG:  Solving for p_rgh, Initial residual = 0.0858793, Final residual = 0.000747033, No Iterations 63
time step continuity errors : sum local = 3.88629e-05, global = -6.15896e-08, cumulative = -1.66423e-05
ExecutionTime = 2.98 s  ClockTime = 3 s

Time = 14

DILUPBiCGStab:  Solving for Ux, Initial residual = 0.0218114, Final residual = 4.91429e-05, No Iterations 1
DILUPBiCGStab:  Solving for Uy, Initial residual = 0.0302428, Final residual = 7.11042e-05, No Iterations 1
DILUPBiCGStab:  Solving for Uz, Initial residual = 0.0327182, Final residual = 0.000102934, No Iterations 1
DICPCG:  Solving for G, Initial residual = 0.00151867, Final residual = 0.000151797, No Iterations 25
DILUPBiCGStab:  Solving for h, Initial residual = 0.00817024, Final residual = 6.86178e-05, No Iterations 1
DICPCG:  Solving for p_rgh, Initial residual = 0.0685119, Final residual = 0.000613574, No Iterations 25
time step continuity errors : sum local = 3.06222e-05, global = -8.81541e-06, cumulative = -2.54578e-05
ExecutionTime = 3.17 s  ClockTime = 3 s

Time = 15

DILUPBiCGStab:  Solving for Ux, Initial residual = 0.0200822, Final residual = 4.54486e-05, No Iterations 1
DILUPBiCGStab:  Solving for Uy, Initial residual = 0.0275987, Final residual = 6.5518e-05, No Iterations 1
DILUPBiCGStab:  Solving for Uz, Initial residual = 0.0242011, Final residual = 6.66302e-05, No Iterations 1
DICPCG:  Solving for G, Initial residual = 0.00138308, Final residual = 0.000138152, No Iterations 25
DILUPBiCGStab:  Solving for h, Initial residual = 0.00757355, Final residual = 6.44642e-05, No Iterations 1
DICPCG:  Solving for p_rgh, Initial residual = 0.0545514, Final residual = 0.000508262, No Iterations 28
time step continuity errors : sum local = 2.44173e-05, global = 4.38097e-06, cumulative = -2.10768e-05
ExecutionTime = 3.36 s  ClockTime = 4 s

Time = 16

DILUPBiCGStab:  Solving for Ux, Initial residual = 0.018488, Final residual = 4.21268e-05, No Iterations 1
DILUPBiCGStab:  Solving for Uy, Initial residual = 0.0251544, Final residual = 5.96174e-05, No Iterations 1
DILUPBiCGStab:  Solving for Uz, Initial residual = 0.0224539, Final residual = 6.10913e-05, No Iterations 1
DICPCG:  Solving for G, Initial residual = 0.00125937, Final residual = 0.000125653, No Iterations 25
DILUPBiCGStab:  Solving for h, Initial residual = 0.0070496, Final residual = 6.09033e-05, No Iterations 1
DICPCG:  Solving for p_rgh, Initial residual = 0.0486475, Final residual = 0.000452542, No Iterations 59
time step continuity errors : sum local = 2.09488e-05, global = -2.77788e-08, cumulative = -2.11046e-05
ExecutionTime = 3.56 s  ClockTime = 4 s

Time = 17

DILUPBiCGStab:  Solving for Ux, Initial residual = 0.0170019, Final residual = 3.90607e-05, No Iterations 1
DILUPBiCGStab:  Solving for Uy, Initial residual = 0.0232144, Final residual = 5.6685e-05, No Iterations 1
DILUPBiCGStab:  Solving for Uz, Initial residual = 0.0206634, Final residual = 5.69183e-05, No Iterations 1
DICPCG:  Solving for G, Initial residual = 0.00115296, Final residual = 0.000107767, No Iterations 25
DILUPBiCGStab:  Solving for h, Initial residual = 0.00659119, Final residual = 5.78033e-05, No Iterations 1
DICPCG:  Solving for p_rgh, Initial residual = 0.0447731, Final residual = 0.000395144, No Iterations 60
time step continuity errors : sum local = 1.7753e-05, global = -1.3525e-08, cumulative = -2.11181e-05
ExecutionTime = 3.77 s  ClockTime = 4 s

Time = 18

DILUPBiCGStab:  Solving for Ux, Initial residual = 0.0157807, Final residual = 3.64766e-05, No Iterations 1
DILUPBiCGStab:  Solving for Uy, Initial residual = 0.0215097, Final residual = 5.42273e-05, No Iterations 1
DILUPBiCGStab:  Solving for Uz, Initial residual = 0.0195794, Final residual = 5.49831e-05, No Iterations 1
DICPCG:  Solving for G, Initial residual = 0.00105865, Final residual = 0.000103126, No Iterations 25
DILUPBiCGStab:  Solving for h, Initial residual = 0.00618493, Final residual = 5.50834e-05, No Iterations 1
DICPCG:  Solving for p_rgh, Initial residual = 0.0413772, Final residual = 0.000413324, No Iterations 54
time step continuity errors : sum local = 1.80257e-05, global = 8.87539e-08, cumulative = -2.10293e-05
ExecutionTime = 3.97 s  ClockTime = 4 s

Time = 19

DILUPBiCGStab:  Solving for Ux, Initial residual = 0.0147819, Final residual = 3.43504e-05, No Iterations 1
DILUPBiCGStab:  Solving for Uy, Initial residual = 0.0200988, Final residual = 5.18285e-05, No Iterations 1
DILUPBiCGStab:  Solving for Uz, Initial residual = 0.0181137, Final residual = 5.00782e-05, No Iterations 1
DICPCG:  Solving for G, Initial residual = 0.000978654, Final residual = 8.83931e-05, No Iterations 25
DILUPBiCGStab:  Solving for h, Initial residual = 0.00582216, Final residual = 5.27079e-05, No Iterations 1
DICPCG:  Solving for p_rgh, Initial residual = 0.0383294, Final residual = 0.000376826, No Iterations 55
time step continuity errors : sum local = 1.59432e-05, global = 9.65033e-08, cumulative = -2.09328e-05
ExecutionTime = 4.17 s  ClockTime = 4 s

Time = 20

DILUPBiCGStab:  Solving for Ux, Initial residual = 0.0138898, Final residual = 3.23796e-05, No Iterations 1
DILUPBiCGStab:  Solving for Uy, Initial residual = 0.0188199, Final residual = 4.9204e-05, No Iterations 1
DILUPBiCGStab:  Solving for Uz, Initial residual = 0.0168442, Final residual = 4.54416e-05, No Iterations 1
DICPCG:  Solving for G, Initial residual = 0.000937283, Final residual = 9.20365e-05, No Iterations 23
DILUPBiCGStab:  Solving for h, Initial residual = 0.0054975, Final residual = 5.05945e-05, No Iterations 1
DICPCG:  Solving for p_rgh, Initial residual = 0.0356498, Final residual = 0.000354961, No Iterations 54
time step continuity errors : sum local = 1.46056e-05, global = 3.71489e-08, cumulative = -2.08957e-05
ExecutionTime = 4.39 s  ClockTime = 5 s

Time = 21

DILUPBiCGStab:  Solving for Ux, Initial residual = 0.0130835, Final residual = 3.06615e-05, No Iterations 1
DILUPBiCGStab:  Solving for Uy, Initial residual = 0.0177147, Final residual = 4.67874e-05, No Iterations 1
DILUPBiCGStab:  Solving for Uz, Initial residual = 0.0158743, Final residual = 4.21645e-05, No Iterations 1
DICPCG:  Solving for G, Initial residual = 0.000873202, Final residual = 7.93025e-05, No Iterations 24
DILUPBiCGStab:  Solving for h, Initial residual = 0.00520379, Final residual = 4.87827e-05, No Iterations 1
DICPCG:  Solving for p_rgh, Initial residual = 0.0329784, Final residual = 0.000296993, No Iterations 51
time step continuity errors : sum local = 1.19048e-05, global = 5.70047e-08, cumulative = -2.08387e-05
ExecutionTime = 4.6 s  ClockTime = 5 s

Time = 22

DILUPBiCGStab:  Solving for Ux, Initial residual = 0.0123412, Final residual = 2.93551e-05, No Iterations 1
DILUPBiCGStab:  Solving for Uy, Initial residual = 0.0167167, Final residual = 4.47452e-05, No Iterations 1
DILUPBiCGStab:  Solving for Uz, Initial residual = 0.0149763, Final residual = 3.90126e-05, No Iterations 1
DICPCG:  Solving for G, Initial residual = 0.00081761, Final residual = 7.99176e-05, No Iterations 24
DILUPBiCGStab:  Solving for h, Initial residual = 0.00494025, Final residual = 4.71285e-05, No Iterations 1
DICPCG:  Solving for p_rgh, Initial residual = 0.0306122, Final residual = 0.000277145, No Iterations 12
time step continuity errors : sum local = 1.07984e-05, global = 1.27263e-07, cumulative = -2.07114e-05
ExecutionTime = 4.81 s  ClockTime = 5 s

Time = 23

DILUPBiCGStab:  Solving for Ux, Initial residual = 0.0116753, Final residual = 2.83665e-05, No Iterations 1
DILUPBiCGStab:  Solving for Uy, Initial residual = 0.0157873, Final residual = 4.30124e-05, No Iterations 1
DILUPBiCGStab:  Solving for Uz, Initial residual = 0.0141299, Final residual = 3.64175e-05, No Iterations 1
DICPCG:  Solving for G, Initial residual = 0.000742027, Final residual = 7.35036e-05, No Iterations 24
DILUPBiCGStab:  Solving for h, Initial residual = 0.00470278, Final residual = 4.56078e-05, No Iterations 1
DICPCG:  Solving for p_rgh, Initial residual = 0.0285254, Final residual = 0.00027084, No Iterations 53
time step continuity errors : sum local = 1.029e-05, global = -1.34796e-08, cumulative = -2.07249e-05
ExecutionTime = 5.03 s  ClockTime = 5 s

Time = 24

DILUPBiCGStab:  Solving for Ux, Initial residual = 0.0110692, Final residual = 2.75518e-05, No Iterations 1
DILUPBiCGStab:  Solving for Uy, Initial residual = 0.0149759, Final residual = 4.15881e-05, No Iterations 1
DILUPBiCGStab:  Solving for Uz, Initial residual = 0.0133271, Final residual = 3.531e-05, No Iterations 1
DICPCG:  Solving for G, Initial residual = 0.000692254, Final residual = 6.64977e-05, No Iterations 24
DILUPBiCGStab:  Solving for h, Initial residual = 0.00448979, Final residual = 4.41952e-05, No Iterations 1
DICPCG:  Solving for p_rgh, Initial residual = 0.0265874, Final residual = 0.000243693, No Iterations 11
time step continuity errors : sum local = 9.03773e-06, global = -1.1624e-06, cumulative = -2.18873e-05
ExecutionTime = 5.22 s  ClockTime = 5 s

Time = 25

DILUPBiCGStab:  Solving for Ux, Initial residual = 0.0105679, Final residual = 2.66679e-05, No Iterations 1
DILUPBiCGStab:  Solving for Uy, Initial residual = 0.0142281, Final residual = 4.01914e-05, No Iterations 1
DILUPBiCGStab:  Solving for Uz, Initial residual = 0.012649, Final residual = 3.45898e-05, No Iterations 1
DICPCG:  Solving for G, Initial residual = 0.000676548, Final residual = 5.93739e-05, No Iterations 23
DILUPBiCGStab:  Solving for h, Initial residual = 0.00429729, Final residual = 4.28938e-05, No Iterations 1
DICPCG:  Solving for p_rgh, Initial residual = 0.0248479, Final residual = 0.000241904, No Iterations 14
time step continuity errors : sum local = 8.79173e-06, global = 5.28955e-07, cumulative = -2.13583e-05
ExecutionTime = 5.42 s  ClockTime = 6 s

Time = 26

DILUPBiCGStab:  Solving for Ux, Initial residual = 0.0100734, Final residual = 2.60262e-05, No Iterations 1
DILUPBiCGStab:  Solving for Uy, Initial residual = 0.0135814, Final residual = 3.91971e-05, No Iterations 1
DILUPBiCGStab:  Solving for Uz, Initial residual = 0.0120694, Final residual = 3.18784e-05, No Iterations 1
DICPCG:  Solving for G, Initial residual = 0.000615441, Final residual = 5.98298e-05, No Iterations 23
DILUPBiCGStab:  Solving for h, Initial residual = 0.00412208, Final residual = 1.72036e-06, No Iterations 1
DICPCG:  Solving for p_rgh, Initial residual = 0.0232864, Final residual = 0.000228562, No Iterations 50
time step continuity errors : sum local = 8.13674e-06, global = 8.19815e-08, cumulative = -2.12764e-05
ExecutionTime = 5.63 s  ClockTime = 6 s

Time = 27

DILUPBiCGStab:  Solving for Ux, Initial residual = 0.0096519, Final residual = 2.52918e-05, No Iterations 1
DILUPBiCGStab:  Solving for Uy, Initial residual = 0.0130031, Final residual = 3.80582e-05, No Iterations 1
DILUPBiCGStab:  Solving for Uz, Initial residual = 0.0115152, Final residual = 3.29615e-05, No Iterations 1
DICPCG:  Solving for G, Initial residual = 0.000586192, Final residual = 5.50988e-05, No Iterations 23
DILUPBiCGStab:  Solving for h, Initial residual = 0.00396207, Final residual = 1.67255e-06, No Iterations 1
DICPCG:  Solving for p_rgh, Initial residual = 0.0219627, Final residual = 0.000210834, No Iterations 20
time step continuity errors : sum local = 7.36656e-06, global = -1.8535e-07, cumulative = -2.14617e-05
ExecutionTime = 5.83 s  ClockTime = 6 s

Time = 28

DILUPBiCGStab:  Solving for Ux, Initial residual = 0.00927019, Final residual = 2.4612e-05, No Iterations 1
DILUPBiCGStab:  Solving for Uy, Initial residual = 0.0124772, Final residual = 3.69976e-05, No Iterations 1
DILUPBiCGStab:  Solving for Uz, Initial residual = 0.0110036, Final residual = 3.24811e-05, No Iterations 1
DICPCG:  Solving for G, Initial residual = 0.000556175, Final residual = 4.98837e-05, No Iterations 23
DILUPBiCGStab:  Solving for h, Initial residual = 0.00381489, Final residual = 1.62729e-06, No Iterations 1
DICPCG:  Solving for p_rgh, Initial residual = 0.0207318, Final residual = 0.000197671, No Iterations 21
time step continuity errors : sum local = 6.78624e-06, global = -1.21539e-06, cumulative = -2.26771e-05
ExecutionTime = 6.03 s  ClockTime = 6 s

Time = 29

DILUPBiCGStab:  Solving for Ux, Initial residual = 0.0089018, Final residual = 2.38597e-05, No Iterations 1
DILUPBiCGStab:  Solving for Uy, Initial residual = 0.0120042, Final residual = 3.60256e-05, No Iterations 1
DILUPBiCGStab:  Solving for Uz, Initial residual = 0.0105406, Final residual = 3.1646e-05, No Iterations 1
DICPCG:  Solving for G, Initial residual = 0.000529115, Final residual = 4.70013e-05, No Iterations 23
DILUPBiCGStab:  Solving for h, Initial residual = 0.00367898, Final residual = 1.58462e-06, No Iterations 1
DICPCG:  Solving for p_rgh, Initial residual = 0.0195743, Final residual = 0.000187708, No Iterations 12
time step continuity errors : sum local = 6.34087e-06, global = -2.29829e-06, cumulative = -2.49754e-05
ExecutionTime = 6.23 s  ClockTime = 6 s

Time = 30

DILUPBiCGStab:  Solving for Ux, Initial residual = 0.00857666, Final residual = 2.31461e-05, No Iterations 1
DILUPBiCGStab:  Solving for Uy, Initial residual = 0.0115696, Final residual = 3.50365e-05, No Iterations 1
DILUPBiCGStab:  Solving for Uz, Initial residual = 0.0101165, Final residual = 3.0714e-05, No Iterations 1
DICPCG:  Solving for G, Initial residual = 0.000504774, Final residual = 4.89284e-05, No Iterations 22
DILUPBiCGStab:  Solving for h, Initial residual = 0.00355341, Final residual = 1.54453e-06, No Iterations 1
DICPCG:  Solving for p_rgh, Initial residual = 0.0185092, Final residual = 0.000160011, No Iterations 48
time step continuity errors : sum local = 5.32562e-06, global = -1.38974e-07, cumulative = -2.51144e-05
ExecutionTime = 6.45 s  ClockTime = 7 s

Time = 31

DILUPBiCGStab:  Solving for Ux, Initial residual = 0.00826049, Final residual = 2.24894e-05, No Iterations 1
DILUPBiCGStab:  Solving for Uy, Initial residual = 0.0111783, Final residual = 3.41828e-05, No Iterations 1
DILUPBiCGStab:  Solving for Uz, Initial residual = 0.00971261, Final residual = 2.97406e-05, No Iterations 1
DICPCG:  Solving for G, Initial residual = 0.000483941, Final residual = 4.75362e-05, No Iterations 22
DILUPBiCGStab:  Solving for h, Initial residual = 0.00343712, Final residual = 1.50679e-06, No Iterations 1
DICPCG:  Solving for p_rgh, Initial residual = 0.0175045, Final residual = 0.000159599, No Iterations 23
time step continuity errors : sum local = 5.23563e-06, global = 1.0951e-06, cumulative = -2.40193e-05
ExecutionTime = 6.66 s  ClockTime = 7 s

Time = 32

DILUPBiCGStab:  Solving for Ux, Initial residual = 0.00797362, Final residual = 2.18546e-05, No Iterations 1
DILUPBiCGStab:  Solving for Uy, Initial residual = 0.0108006, Final residual = 3.33922e-05, No Iterations 1
DILUPBiCGStab:  Solving for Uz, Initial residual = 0.00934781, Final residual = 2.88119e-05, No Iterations 1
DICPCG:  Solving for G, Initial residual = 0.000463415, Final residual = 4.16815e-05, No Iterations 22
DILUPBiCGStab:  Solving for h, Initial residual = 0.0033292, Final residual = 1.47126e-06, No Iterations 1
DICPCG:  Solving for p_rgh, Initial residual = 0.0165987, Final residual = 0.000159923, No Iterations 48
time step continuity errors : sum local = 5.17952e-06, global = 4.4775e-08, cumulative = -2.39745e-05
ExecutionTime = 6.86 s  ClockTime = 7 s

Time = 33

DILUPBiCGStab:  Solving for Ux, Initial residual = 0.00773172, Final residual = 2.12587e-05, No Iterations 1
DILUPBiCGStab:  Solving for Uy, Initial residual = 0.0104299, Final residual = 3.25858e-05, No Iterations 1
DILUPBiCGStab:  Solving for Uz, Initial residual = 0.00902256, Final residual = 2.79266e-05, No Iterations 1
DICPCG:  Solving for G, Initial residual = 0.000443492, Final residual = 4.10534e-05, No Iterations 22
DILUPBiCGStab:  Solving for h, Initial residual = 0.00322882, Final residual = 1.43791e-06, No Iterations 1
DICPCG:  Solving for p_rgh, Initial residual = 0.0157983, Final residual = 0.0001489, No Iterations 14
time step continuity errors : sum local = 4.76749e-06, global = 3.22329e-09, cumulative = -2.39713e-05
ExecutionTime = 7.05 s  ClockTime = 7 s

Time = 34

DILUPBiCGStab:  Solving for Ux, Initial residual = 0.00748491, Final residual = 2.06207e-05, No Iterations 1
DILUPBiCGStab:  Solving for Uy, Initial residual = 0.0101183, Final residual = 3.17172e-05, No Iterations 1
DILUPBiCGStab:  Solving for Uz, Initial residual = 0.00870072, Final residual = 2.70429e-05, No Iterations 1
DICPCG:  Solving for G, Initial residual = 0.000426193, Final residual = 4.21607e-05, No Iterations 21
DILUPBiCGStab:  Solving for h, Initial residual = 0.00313531, Final residual = 1.40651e-06, No Iterations 1
DICPCG:  Solving for p_rgh, Initial residual = 0.015055, Final residual = 0.000144543, No Iterations 19
time step continuity errors : sum local = 4.57528e-06, global = -7.32904e-07, cumulative = -2.47042e-05
ExecutionTime = 7.23 s  ClockTime = 7 s

Time = 35

DILUPBiCGStab:  Solving for Ux, Initial residual = 0.00725644, Final residual = 2.00598e-05, No Iterations 1
DILUPBiCGStab:  Solving for Uy, Initial residual = 0.00980671, Final residual = 3.09378e-05, No Iterations 1
DILUPBiCGStab:  Solving for Uz, Initial residual = 0.00840322, Final residual = 2.621e-05, No Iterations 1
DICPCG:  Solving for G, Initial residual = 0.000409651, Final residual = 3.5211e-05, No Iterations 22
DILUPBiCGStab:  Solving for h, Initial residual = 0.00304804, Final residual = 1.37714e-06, No Iterations 1
DICPCG:  Solving for p_rgh, Initial residual = 0.014356, Final residual = 0.000140623, No Iterations 17
time step continuity errors : sum local = 4.40332e-06, global = -1.16346e-06, cumulative = -2.58676e-05
ExecutionTime = 7.43 s  ClockTime = 8 s

Time = 36

DILUPBiCGStab:  Solving for Ux, Initial residual = 0.00704156, Final residual = 1.95205e-05, No Iterations 1
DILUPBiCGStab:  Solving for Uy, Initial residual = 0.00952335, Final residual = 3.02108e-05, No Iterations 1
DILUPBiCGStab:  Solving for Uz, Initial residual = 0.00812352, Final residual = 2.54282e-05, No Iterations 1
DICPCG:  Solving for G, Initial residual = 0.000395209, Final residual = 3.65474e-05, No Iterations 21
DILUPBiCGStab:  Solving for h, Initial residual = 0.0029664, Final residual = 1.34963e-06, No Iterations 1
DICPCG:  Solving for p_rgh, Initial residual = 0.0136905, Final residual = 0.000132256, No Iterations 52
time step continuity errors : sum local = 4.09916e-06, global = -2.38866e-08, cumulative = -2.58915e-05
ExecutionTime = 7.64 s  ClockTime = 8 s

Time = 37

DILUPBiCGStab:  Solving for Ux, Initial residual = 0.00682501, Final residual = 1.89991e-05, No Iterations 1
DILUPBiCGStab:  Solving for Uy, Initial residual = 0.00927182, Final residual = 2.94397e-05, No Iterations 1
DILUPBiCGStab:  Solving for Uz, Initial residual = 0.00785318, Final residual = 2.46759e-05, No Iterations 1
DICPCG:  Solving for G, Initial residual = 0.000380444, Final residual = 3.50665e-05, No Iterations 21
DILUPBiCGStab:  Solving for h, Initial residual = 0.00288992, Final residual = 1.32368e-06, No Iterations 1
DICPCG:  Solving for p_rgh, Initial residual = 0.0130648, Final residual = 0.000124584, No Iterations 15
time step continuity errors : sum local = 3.8231e-06, global = 6.94098e-07, cumulative = -2.51974e-05
ExecutionTime = 7.84 s  ClockTime = 8 s

Time = 38

DILUPBiCGStab:  Solving for Ux, Initial residual = 0.00663747, Final residual = 1.85307e-05, No Iterations 1
DILUPBiCGStab:  Solving for Uy, Initial residual = 0.0090299, Final residual = 2.88285e-05, No Iterations 1
DILUPBiCGStab:  Solving for Uz, Initial residual = 0.00760832, Final residual = 2.39609e-05, No Iterations 1
DICPCG:  Solving for G, Initial residual = 0.000367501, Final residual = 3.65081e-05, No Iterations 20
DILUPBiCGStab:  Solving for h, Initial residual = 0.00281823, Final residual = 1.29921e-06, No Iterations 1
DICPCG:  Solving for p_rgh, Initial residual = 0.0124903, Final residual = 0.000113194, No Iterations 54
time step continuity errors : sum local = 3.44185e-06, global = 6.62876e-08, cumulative = -2.51311e-05
ExecutionTime = 8.05 s  ClockTime = 8 s

Time = 39

DILUPBiCGStab:  Solving for Ux, Initial residual = 0.00646943, Final residual = 1.80712e-05, No Iterations 1
DILUPBiCGStab:  Solving for Uy, Initial residual = 0.00876135, Final residual = 2.81314e-05, No Iterations 1
DILUPBiCGStab:  Solving for Uz, Initial residual = 0.00738391, Final residual = 2.32908e-05, No Iterations 1
DICPCG:  Solving for G, Initial residual = 0.000359043, Final residual = 3.50838e-05, No Iterations 20
DILUPBiCGStab:  Solving for h, Initial residual = 0.00275086, Final residual = 1.27621e-06, No Iterations 1
DICPCG:  Solving for p_rgh, Initial residual = 0.0119945, Final residual = 0.000106413, No Iterations 15
time step continuity errors : sum local = 3.20883e-06, global = 8.3907e-08, cumulative = -2.50472e-05
ExecutionTime = 8.27 s  ClockTime = 9 s

Time = 40

DILUPBiCGStab:  Solving for Ux, Initial residual = 0.00629625, Final residual = 1.76278e-05, No Iterations 1
DILUPBiCGStab:  Solving for Uy, Initial residual = 0.00855073, Final residual = 2.7586e-05, No Iterations 1
DILUPBiCGStab:  Solving for Uz, Initial residual = 0.00716507, Final residual = 2.26631e-05, No Iterations 1
DICPCG:  Solving for G, Initial residual = 0.000347863, Final residual = 3.43666e-05, No Iterations 19
DILUPBiCGStab:  Solving for h, Initial residual = 0.00268751, Final residual = 1.25449e-06, No Iterations 1
DICPCG:  Solving for p_rgh, Initial residual = 0.0115142, Final residual = 0.000108433, No Iterations 16
time step continuity errors : sum local = 3.24264e-06, global = -2.21969e-07, cumulative = -2.52692e-05
ExecutionTime = 8.48 s  ClockTime = 9 s

Time = 41

DILUPBiCGStab:  Solving for Ux, Initial residual = 0.00612964, Final residual = 1.7208e-05, No Iterations 1
DILUPBiCGStab:  Solving for Uy, Initial residual = 0.00834968, Final residual = 2.70269e-05, No Iterations 1
DILUPBiCGStab:  Solving for Uz, Initial residual = 0.00695804, Final residual = 2.20589e-05, No Iterations 1
DICPCG:  Solving for G, Initial residual = 0.00033905, Final residual = 3.38081e-05, No Iterations 18
DILUPBiCGStab:  Solving for h, Initial residual = 0.00262783, Final residual = 1.23407e-06, No Iterations 1
DICPCG:  Solving for p_rgh, Initial residual = 0.0110561, Final residual = 0.0001093, No Iterations 19
time step continuity errors : sum local = 3.24284e-06, global = -3.08848e-07, cumulative = -2.5578e-05
ExecutionTime = 8.69 s  ClockTime = 9 s

Time = 42

DILUPBiCGStab:  Solving for Ux, Initial residual = 0.00597385, Final residual = 1.68098e-05, No Iterations 1
DILUPBiCGStab:  Solving for Uy, Initial residual = 0.0081455, Final residual = 2.63805e-05, No Iterations 1
DILUPBiCGStab:  Solving for Uz, Initial residual = 0.00676177, Final residual = 2.14847e-05, No Iterations 1
DICPCG:  Solving for G, Initial residual = 0.000327485, Final residual = 3.17859e-05, No Iterations 19
DILUPBiCGStab:  Solving for h, Initial residual = 0.00257156, Final residual = 1.21484e-06, No Iterations 1
DICPCG:  Solving for p_rgh, Initial residual = 0.0106305, Final residual = 0.000105957, No Iterations 21
time step continuity errors : sum local = 3.1201e-06, global = -1.78783e-07, cumulative = -2.57568e-05
ExecutionTime = 8.89 s  ClockTime = 9 s

Time = 43

DILUPBiCGStab:  Solving for Ux, Initial residual = 0.00582215, Final residual = 1.64117e-05, No Iterations 1
DILUPBiCGStab:  Solving for Uy, Initial residual = 0.00795384, Final residual = 2.57817e-05, No Iterations 1
DILUPBiCGStab:  Solving for Uz, Initial residual = 0.00657627, Final residual = 2.09471e-05, No Iterations 1
DICPCG:  Solving for G, Initial residual = 0.000320327, Final residual = 3.02988e-05, No Iterations 18
DILUPBiCGStab:  Solving for h, Initial residual = 0.00251843, Final residual = 1.19674e-06, No Iterations 1
DICPCG:  Solving for p_rgh, Initial residual = 0.0102298, Final residual = 9.74717e-05, No Iterations 17
time step continuity errors : sum local = 2.84982e-06, global = 8.57335e-08, cumulative = -2.56711e-05
ExecutionTime = 9.1 s  ClockTime = 9 s

Time = 44

DILUPBiCGStab:  Solving for Ux, Initial residual = 0.00567442, Final residual = 1.60366e-05, No Iterations 1
DILUPBiCGStab:  Solving for Uy, Initial residual = 0.00778982, Final residual = 2.53349e-05, No Iterations 1
DILUPBiCGStab:  Solving for Uz, Initial residual = 0.00640422, Final residual = 2.04494e-05, No Iterations 1
DICPCG:  Solving for G, Initial residual = 0.000310136, Final residual = 2.99954e-05, No Iterations 18
DILUPBiCGStab:  Solving for h, Initial residual = 0.00246824, Final residual = 1.17968e-06, No Iterations 1
DICPCG:  Solving for p_rgh, Initial residual = 0.00985567, Final residual = 8.9055e-05, No Iterations 25
time step continuity errors : sum local = 2.58615e-06, global = 4.81552e-07, cumulative = -2.51895e-05
ExecutionTime = 9.3 s  ClockTime = 10 s

Time = 45

DILUPBiCGStab:  Solving for Ux, Initial residual = 0.00553689, Final residual = 1.56853e-05, No Iterations 1
DILUPBiCGStab:  Solving for Uy, Initial residual = 0.00761491, Final residual = 2.47954e-05, No Iterations 1
DILUPBiCGStab:  Solving for Uz, Initial residual = 0.00623779, Final residual = 1.99573e-05, No Iterations 1
DICPCG:  Solving for G, Initial residual = 0.000302179, Final residual = 2.88273e-05, No Iterations 18
DILUPBiCGStab:  Solving for h, Initial residual = 0.00242075, Final residual = 1.16355e-06, No Iterations 1
DICPCG:  Solving for p_rgh, Initial residual = 0.00951508, Final residual = 8.63719e-05, No Iterations 48
time step continuity errors : sum local = 2.49226e-06, global = 7.48136e-08, cumulative = -2.51147e-05
ExecutionTime = 9.5 s  ClockTime = 10 s

Time = 46

DILUPBiCGStab:  Solving for Ux, Initial residual = 0.00541503, Final residual = 1.53522e-05, No Iterations 1
DILUPBiCGStab:  Solving for Uy, Initial residual = 0.00745387, Final residual = 2.43879e-05, No Iterations 1
DILUPBiCGStab:  Solving for Uz, Initial residual = 0.0060844, Final residual = 1.95071e-05, No Iterations 1
DICPCG:  Solving for G, Initial residual = 0.000294844, Final residual = 2.83707e-05, No Iterations 18
DILUPBiCGStab:  Solving for h, Initial residual = 0.00237571, Final residual = 1.14832e-06, No Iterations 1
DICPCG:  Solving for p_rgh, Initial residual = 0.00920773, Final residual = 9.03803e-05, No Iterations 18
time step continuity errors : sum local = 2.59278e-06, global = 6.05843e-08, cumulative = -2.50541e-05
ExecutionTime = 9.69 s  ClockTime = 10 s

Time = 47

DILUPBiCGStab:  Solving for Ux, Initial residual = 0.0052868, Final residual = 1.50279e-05, No Iterations 1
DILUPBiCGStab:  Solving for Uy, Initial residual = 0.00731016, Final residual = 2.39635e-05, No Iterations 1
DILUPBiCGStab:  Solving for Uz, Initial residual = 0.00593696, Final residual = 1.90724e-05, No Iterations 1
DICPCG:  Solving for G, Initial residual = 0.000288303, Final residual = 2.77628e-05, No Iterations 18
DILUPBiCGStab:  Solving for h, Initial residual = 0.0023329, Final residual = 1.13389e-06, No Iterations 1
DICPCG:  Solving for p_rgh, Initial residual = 0.00890295, Final residual = 8.09875e-05, No Iterations 20
time step continuity errors : sum local = 2.31003e-06, global = -7.45039e-08, cumulative = -2.51286e-05
ExecutionTime = 9.87 s  ClockTime = 10 s

Time = 48

DILUPBiCGStab:  Solving for Ux, Initial residual = 0.00516653, Final residual = 1.47087e-05, No Iterations 1
DILUPBiCGStab:  Solving for Uy, Initial residual = 0.00716247, Final residual = 2.34517e-05, No Iterations 1
DILUPBiCGStab:  Solving for Uz, Initial residual = 0.0057962, Final residual = 1.86554e-05, No Iterations 1
DICPCG:  Solving for G, Initial residual = 0.00028211, Final residual = 2.79731e-05, No Iterations 18
DILUPBiCGStab:  Solving for h, Initial residual = 0.00229217, Final residual = 1.12025e-06, No Iterations 1
DICPCG:  Solving for p_rgh, Initial residual = 0.00861988, Final residual = 8.23542e-05, No Iterations 22
time step continuity errors : sum local = 2.33627e-06, global = -1.43578e-08, cumulative = -2.5143e-05
ExecutionTime = 10.06 s  ClockTime = 10 s

Time = 49

DILUPBiCGStab:  Solving for Ux, Initial residual = 0.0050465, Final residual = 1.43947e-05, No Iterations 1
DILUPBiCGStab:  Solving for Uy, Initial residual = 0.00702702, Final residual = 2.29856e-05, No Iterations 1
DILUPBiCGStab:  Solving for Uz, Initial residual = 0.00566338, Final residual = 1.82623e-05, No Iterations 1
DICPCG:  Solving for G, Initial residual = 0.000276376, Final residual = 2.69754e-05, No Iterations 19
DILUPBiCGStab:  Solving for h, Initial residual = 0.00225339, Final residual = 1.1074e-06, No Iterations 1
DICPCG:  Solving for p_rgh, Initial residual = 0.0083482, Final residual = 7.11526e-05, No Iterations 25
time step continuity errors : sum local = 2.00808e-06, global = 2.32291e-07, cumulative = -2.49107e-05
ExecutionTime = 10.25 s  ClockTime = 11 s

Time = 50

DILUPBiCGStab:  Solving for Ux, Initial residual = 0.00492808, Final residual = 1.40952e-05, No Iterations 1
DILUPBiCGStab:  Solving for Uy, Initial residual = 0.00690531, Final residual = 2.26051e-05, No Iterations 1
DILUPBiCGStab:  Solving for Uz, Initial residual = 0.0055392, Final residual = 1.78955e-05, No Iterations 1
DICPCG:  Solving for G, Initial residual = 0.000271784, Final residual = 2.6385e-05, No Iterations 19
DILUPBiCGStab:  Solving for h, Initial residual = 0.00221641, Final residual = 1.09525e-06, No Iterations 1
DICPCG:  Solving for p_rgh, Initial residual = 0.0080832, Final residual = 7.80874e-05, No Iterations 18
time step continuity errors : sum local = 2.19293e-06, global = 5.59653e-07, cumulative = -2.4351e-05
ExecutionTime = 10.45 s  ClockTime = 11 s

Time = 51

DILUPBiCGStab:  Solving for Ux, Initial residual = 0.00481894, Final residual = 1.38157e-05, No Iterations 1
DILUPBiCGStab:  Solving for Uy, Initial residual = 0.00680192, Final residual = 2.23212e-05, No Iterations 1
DILUPBiCGStab:  Solving for Uz, Initial residual = 0.00542097, Final residual = 1.75424e-05, No Iterations 1
DICPCG:  Solving for G, Initial residual = 0.000266332, Final residual = 2.48076e-05, No Iterations 20
DILUPBiCGStab:  Solving for h, Initial residual = 0.0021812, Final residual = 1.08371e-06, No Iterations 1
DICPCG:  Solving for p_rgh, Initial residual = 0.0078391, Final residual = 7.01941e-05, No Iterations 58
time step continuity errors : sum local = 1.96191e-06, global = 3.31307e-08, cumulative = -2.43179e-05
ExecutionTime = 10.68 s  ClockTime = 11 s

Time = 52

DILUPBiCGStab:  Solving for Ux, Initial residual = 0.0047265, Final residual = 1.35507e-05, No Iterations 1
DILUPBiCGStab:  Solving for Uy, Initial residual = 0.00666377, Final residual = 2.18954e-05, No Iterations 1
DILUPBiCGStab:  Solving for Uz, Initial residual = 0.00530642, Final residual = 1.71925e-05, No Iterations 1
DICPCG:  Solving for G, Initial residual = 0.000260832, Final residual = 2.4811e-05, No Iterations 20
DILUPBiCGStab:  Solving for h, Initial residual = 0.00214769, Final residual = 1.07281e-06, No Iterations 1
DICPCG:  Solving for p_rgh, Initial residual = 0.0076402, Final residual = 7.31613e-05, No Iterations 19
time step continuity errors : sum local = 2.03602e-06, global = -6.30852e-08, cumulative = -2.4381e-05
ExecutionTime = 10.87 s  ClockTime = 11 s

Time = 53

DILUPBiCGStab:  Solving for Ux, Initial residual = 0.0046196, Final residual = 1.32728e-05, No Iterations 1
DILUPBiCGStab:  Solving for Uy, Initial residual = 0.00656892, Final residual = 2.16136e-05, No Iterations 1
DILUPBiCGStab:  Solving for Uz, Initial residual = 0.00519925, Final residual = 1.6871e-05, No Iterations 1
DICPCG:  Solving for G, Initial residual = 0.000256171, Final residual = 2.50274e-05, No Iterations 20
DILUPBiCGStab:  Solving for h, Initial residual = 0.00211568, Final residual = 1.06247e-06, No Iterations 1
DICPCG:  Solving for p_rgh, Initial residual = 0.00742616, Final residual = 7.42175e-05, No Iterations 21
time step continuity errors : sum local = 2.05632e-06, global = -2.53553e-07, cumulative = -2.46346e-05
ExecutionTime = 11.07 s  ClockTime = 11 s

Time = 54

DILUPBiCGStab:  Solving for Ux, Initial residual = 0.00451933, Final residual = 1.3007e-05, No Iterations 1
DILUPBiCGStab:  Solving for Uy, Initial residual = 0.00646595, Final residual = 2.12249e-05, No Iterations 1
DILUPBiCGStab:  Solving for Uz, Initial residual = 0.00509696, Final residual = 1.65588e-05, No Iterations 1
DICPCG:  Solving for G, Initial residual = 0.00025208, Final residual = 2.26411e-05, No Iterations 21
DILUPBiCGStab:  Solving for h, Initial residual = 0.00208506, Final residual = 1.05263e-06, No Iterations 1
DICPCG:  Solving for p_rgh, Initial residual = 0.00721543, Final residual = 7.18596e-05, No Iterations 23
time step continuity errors : sum local = 1.9826e-06, global = -2.34699e-07, cumulative = -2.48693e-05
ExecutionTime = 11.27 s  ClockTime = 12 s

Time = 55

DILUPBiCGStab:  Solving for Ux, Initial residual = 0.00442167, Final residual = 1.27554e-05, No Iterations 1
DILUPBiCGStab:  Solving for Uy, Initial residual = 0.00636943, Final residual = 2.08719e-05, No Iterations 1
DILUPBiCGStab:  Solving for Uz, Initial residual = 0.00500066, Final residual = 1.62667e-05, No Iterations 1
DICPCG:  Solving for G, Initial residual = 0.000246245, Final residual = 2.20574e-05, No Iterations 21
DILUPBiCGStab:  Solving for h, Initial residual = 0.00205577, Final residual = 1.04326e-06, No Iterations 1
DICPCG:  Solving for p_rgh, Initial residual = 0.0070175, Final residual = 6.70651e-05, No Iterations 24
time step continuity errors : sum local = 1.84283e-06, global = -4.39819e-08, cumulative = -2.49132e-05
ExecutionTime = 11.48 s  ClockTime = 12 s

Time = 56

DILUPBiCGStab:  Solving for Ux, Initial residual = 0.00432639, Final residual = 1.25094e-05, No Iterations 1
DILUPBiCGStab:  Solving for Uy, Initial residual = 0.00628586, Final residual = 2.06058e-05, No Iterations 1
DILUPBiCGStab:  Solving for Uz, Initial residual = 0.00490915, Final residual = 1.59899e-05, No Iterations 1
DICPCG:  Solving for G, Initial residual = 0.00024213, Final residual = 2.28698e-05, No Iterations 21
DILUPBiCGStab:  Solving for h, Initial residual = 0.00202771, Final residual = 1.03433e-06, No Iterations 1
DICPCG:  Solving for p_rgh, Initial residual = 0.00682354, Final residual = 6.7192e-05, No Iterations 23
time step continuity errors : sum local = 1.83914e-06, global = 2.45567e-07, cumulative = -2.46677e-05
ExecutionTime = 11.71 s  ClockTime = 12 s

Time = 57

DILUPBiCGStab:  Solving for Ux, Initial residual = 0.00423631, Final residual = 1.22707e-05, No Iterations 1
DILUPBiCGStab:  Solving for Uy, Initial residual = 0.0062066, Final residual = 2.03526e-05, No Iterations 1
DILUPBiCGStab:  Solving for Uz, Initial residual = 0.00482067, Final residual = 1.57207e-05, No Iterations 1
DICPCG:  Solving for G, Initial residual = 0.000238808, Final residual = 2.28483e-05, No Iterations 21
DILUPBiCGStab:  Solving for h, Initial residual = 0.0020008, Final residual = 1.02579e-06, No Iterations 1
DICPCG:  Solving for p_rgh, Initial residual = 0.00664738, Final residual = 6.01524e-05, No Iterations 58
time step continuity errors : sum local = 1.6403e-06, global = 2.98595e-08, cumulative = -2.46378e-05
ExecutionTime = 11.95 s  ClockTime = 12 s

Time = 58

DILUPBiCGStab:  Solving for Ux, Initial residual = 0.00415691, Final residual = 1.20479e-05, No Iterations 1
DILUPBiCGStab:  Solving for Uy, Initial residual = 0.00611154, Final residual = 2.00407e-05, No Iterations 1
DILUPBiCGStab:  Solving for Uz, Initial residual = 0.0047352, Final residual = 1.54664e-05, No Iterations 1
DICPCG:  Solving for G, Initial residual = 0.000235302, Final residual = 2.02405e-05, No Iterations 22
DILUPBiCGStab:  Solving for h, Initial residual = 0.0019749, Final residual = 1.01762e-06, No Iterations 1
DICPCG:  Solving for p_rgh, Initial residual = 0.00648611, Final residual = 6.25336e-05, No Iterations 20
time step continuity errors : sum local = 1.69936e-06, global = 9.29067e-08, cumulative = -2.45449e-05
ExecutionTime = 12.16 s  ClockTime = 12 s

Time = 59

DILUPBiCGStab:  Solving for Ux, Initial residual = 0.00407021, Final residual = 1.18149e-05, No Iterations 1
DILUPBiCGStab:  Solving for Uy, Initial residual = 0.00604559, Final residual = 1.98373e-05, No Iterations 1
DILUPBiCGStab:  Solving for Uz, Initial residual = 0.00465427, Final residual = 1.52195e-05, No Iterations 1
DICPCG:  Solving for G, Initial residual = 0.000232298, Final residual = 2.0105e-05, No Iterations 22
DILUPBiCGStab:  Solving for h, Initial residual = 0.00195, Final residual = 1.00981e-06, No Iterations 1
DICPCG:  Solving for p_rgh, Initial residual = 0.00632209, Final residual = 6.10013e-05, No Iterations 23
time step continuity errors : sum local = 1.65194e-06, global = 1.12729e-07, cumulative = -2.44322e-05
ExecutionTime = 12.37 s  ClockTime = 13 s

Time = 60

DILUPBiCGStab:  Solving for Ux, Initial residual = 0.00398709, Final residual = 1.15907e-05, No Iterations 1
DILUPBiCGStab:  Solving for Uy, Initial residual = 0.00596905, Final residual = 1.95221e-05, No Iterations 1
DILUPBiCGStab:  Solving for Uz, Initial residual = 0.00457725, Final residual = 1.49815e-05, No Iterations 1
DICPCG:  Solving for G, Initial residual = 0.000229065, Final residual = 2.03029e-05, No Iterations 22
DILUPBiCGStab:  Solving for h, Initial residual = 0.00192605, Final residual = 1.00237e-06, No Iterations 1
DICPCG:  Solving for p_rgh, Initial residual = 0.00616776, Final residual = 5.78449e-05, No Iterations 26
time step continuity errors : sum local = 1.56125e-06, global = 2.90854e-07, cumulative = -2.41413e-05
ExecutionTime = 12.59 s  ClockTime = 13 s

Time = 61

DILUPBiCGStab:  Solving for Ux, Initial residual = 0.00390612, Final residual = 1.13757e-05, No Iterations 1
DILUPBiCGStab:  Solving for Uy, Initial residual = 0.00589747, Final residual = 1.92366e-05, No Iterations 1
DILUPBiCGStab:  Solving for Uz, Initial residual = 0.00450558, Final residual = 1.47662e-05, No Iterations 1
DICPCG:  Solving for G, Initial residual = 0.00022616, Final residual = 2.06635e-05, No Iterations 22
DILUPBiCGStab:  Solving for h, Initial residual = 0.001903, Final residual = 9.95223e-07, No Iterations 1
DICPCG:  Solving for p_rgh, Initial residual = 0.00600612, Final residual = 5.43376e-05, No Iterations 55
time step continuity errors : sum local = 1.4619e-06, global = 3.30491e-08, cumulative = -2.41083e-05
ExecutionTime = 12.83 s  ClockTime = 13 s

Time = 62

DILUPBiCGStab:  Solving for Ux, Initial residual = 0.00383411, Final residual = 1.11707e-05, No Iterations 1
DILUPBiCGStab:  Solving for Uy, Initial residual = 0.00583762, Final residual = 1.90903e-05, No Iterations 1
DILUPBiCGStab:  Solving for Uz, Initial residual = 0.00443177, Final residual = 1.45489e-05, No Iterations 1
DICPCG:  Solving for G, Initial residual = 0.00022343, Final residual = 2.04403e-05, No Iterations 22
DILUPBiCGStab:  Solving for h, Initial residual = 0.00188083, Final residual = 9.8837e-07, No Iterations 1
DICPCG:  Solving for p_rgh, Initial residual = 0.00587001, Final residual = 5.61806e-05, No Iterations 22
time step continuity errors : sum local = 1.50702e-06, global = 4.01426e-08, cumulative = -2.40681e-05
ExecutionTime = 13.04 s  ClockTime = 13 s

Time = 63

DILUPBiCGStab:  Solving for Ux, Initial residual = 0.0037604, Final residual = 1.09729e-05, No Iterations 1
DILUPBiCGStab:  Solving for Uy, Initial residual = 0.00577981, Final residual = 1.8892e-05, No Iterations 1
DILUPBiCGStab:  Solving for Uz, Initial residual = 0.00436349, Final residual = 1.43392e-05, No Iterations 1
DICPCG:  Solving for G, Initial residual = 0.000220632, Final residual = 2.10643e-05, No Iterations 22
DILUPBiCGStab:  Solving for h, Initial residual = 0.00185948, Final residual = 9.81768e-07, No Iterations 1
DICPCG:  Solving for p_rgh, Initial residual = 0.00573883, Final residual = 5.39351e-05, No Iterations 24
time step continuity errors : sum local = 1.4424e-06, global = 4.38679e-08, cumulative = -2.40243e-05
ExecutionTime = 13.25 s  ClockTime = 14 s

Time = 64

DILUPBiCGStab:  Solving for Ux, Initial residual = 0.00368503, Final residual = 1.07685e-05, No Iterations 1
DILUPBiCGStab:  Solving for Uy, Initial residual = 0.00571719, Final residual = 1.86023e-05, No Iterations 1
DILUPBiCGStab:  Solving for Uz, Initial residual = 0.00430047, Final residual = 1.415e-05, No Iterations 1
DICPCG:  Solving for G, Initial residual = 0.000218183, Final residual = 2.04951e-05, No Iterations 22
DILUPBiCGStab:  Solving for h, Initial residual = 0.00183888, Final residual = 9.75423e-07, No Iterations 1
DICPCG:  Solving for p_rgh, Initial residual = 0.00560358, Final residual = 5.1906e-05, No Iterations 26
time step continuity errors : sum local = 1.38407e-06, global = 1.9611e-07, cumulative = -2.38282e-05
ExecutionTime = 13.45 s  ClockTime = 14 s

Time = 65

DILUPBiCGStab:  Solving for Ux, Initial residual = 0.00361211, Final residual = 1.05699e-05, No Iterations 1
DILUPBiCGStab:  Solving for Uy, Initial residual = 0.00566424, Final residual = 1.83765e-05, No Iterations 1
DILUPBiCGStab:  Solving for Uz, Initial residual = 0.00423985, Final residual = 1.397e-05, No Iterations 1
DICPCG:  Solving for G, Initial residual = 0.000215534, Final residual = 2.12761e-05, No Iterations 22
DILUPBiCGStab:  Solving for h, Initial residual = 0.00181898, Final residual = 9.69302e-07, No Iterations 1
DICPCG:  Solving for p_rgh, Initial residual = 0.00546856, Final residual = 5.43641e-05, No Iterations 56
time step continuity errors : sum local = 1.44548e-06, global = 3.46396e-08, cumulative = -2.37935e-05
ExecutionTime = 13.67 s  ClockTime = 14 s

Time = 66

DILUPBiCGStab:  Solving for Ux, Initial residual = 0.00354798, Final residual = 1.03886e-05, No Iterations 1
DILUPBiCGStab:  Solving for Uy, Initial residual = 0.00561814, Final residual = 1.82513e-05, No Iterations 1
DILUPBiCGStab:  Solving for Uz, Initial residual = 0.00417688, Final residual = 1.37851e-05, No Iterations 1
DICPCG:  Solving for G, Initial residual = 0.000213325, Final residual = 2.04035e-05, No Iterations 22
DILUPBiCGStab:  Solving for h, Initial residual = 0.00179976, Final residual = 9.63406e-07, No Iterations 1
DICPCG:  Solving for p_rgh, Initial residual = 0.00535323, Final residual = 5.24012e-05, No Iterations 23
time step continuity errors : sum local = 1.38957e-06, global = 8.57961e-08, cumulative = -2.37077e-05
ExecutionTime = 13.86 s  ClockTime = 14 s

Time = 67

DILUPBiCGStab:  Solving for Ux, Initial residual = 0.00348156, Final residual = 1.02049e-05, No Iterations 1
DILUPBiCGStab:  Solving for Uy, Initial residual = 0.00557316, Final residual = 1.80828e-05, No Iterations 1
DILUPBiCGStab:  Solving for Uz, Initial residual = 0.00411925, Final residual = 1.36092e-05, No Iterations 1
DICPCG:  Solving for G, Initial residual = 0.000210782, Final residual = 1.94621e-05, No Iterations 23
DILUPBiCGStab:  Solving for h, Initial residual = 0.00178122, Final residual = 9.57709e-07, No Iterations 1
DICPCG:  Solving for p_rgh, Initial residual = 0.00524058, Final residual = 4.75705e-05, No Iterations 25
time step continuity errors : sum local = 1.25807e-06, global = 1.54452e-07, cumulative = -2.35533e-05
ExecutionTime = 14.06 s  ClockTime = 14 s

Time = 68

DILUPBiCGStab:  Solving for Ux, Initial residual = 0.00341487, Final residual = 1.00197e-05, No Iterations 1
DILUPBiCGStab:  Solving for Uy, Initial residual = 0.00552288, Final residual = 1.78338e-05, No Iterations 1
DILUPBiCGStab:  Solving for Uz, Initial residual = 0.00406656, Final residual = 1.34551e-05, No Iterations 1
DICPCG:  Solving for G, Initial residual = 0.000209349, Final residual = 2.08546e-05, No Iterations 22
DILUPBiCGStab:  Solving for h, Initial residual = 0.00176331, Final residual = 9.52176e-07, No Iterations 1
DICPCG:  Solving for p_rgh, Initial residual = 0.00511867, Final residual = 5.08024e-05, No Iterations 28
time step continuity errors : sum local = 1.34004e-06, global = 3.44976e-07, cumulative = -2.32083e-05
ExecutionTime = 14.25 s  ClockTime = 15 s

Time = 69

DILUPBiCGStab:  Solving for Ux, Initial residual = 0.00335056, Final residual = 9.84126e-06, No Iterations 1
DILUPBiCGStab:  Solving for Uy, Initial residual = 0.00548042, Final residual = 1.76451e-05, No Iterations 1
DILUPBiCGStab:  Solving for Uz, Initial residual = 0.00401489, Final residual = 1.33032e-05, No Iterations 1
DICPCG:  Solving for G, Initial residual = 0.000206853, Final residual = 1.94673e-05, No Iterations 23
DILUPBiCGStab:  Solving for h, Initial residual = 0.00174598, Final residual = 9.46785e-07, No Iterations 1
DICPCG:  Solving for p_rgh, Initial residual = 0.00501006, Final residual = 4.67049e-05, No Iterations 57
time step continuity errors : sum local = 1.22886e-06, global = 2.1775e-08, cumulative = -2.31865e-05
ExecutionTime = 14.46 s  ClockTime = 15 s

Time = 70

DILUPBiCGStab:  Solving for Ux, Initial residual = 0.00329596, Final residual = 9.68009e-06, No Iterations 1
DILUPBiCGStab:  Solving for Uy, Initial residual = 0.00544672, Final residual = 1.7573e-05, No Iterations 1
DILUPBiCGStab:  Solving for Uz, Initial residual = 0.00395943, Final residual = 1.31421e-05, No Iterations 1
DICPCG:  Solving for G, Initial residual = 0.000205303, Final residual = 1.90804e-05, No Iterations 23
DILUPBiCGStab:  Solving for h, Initial residual = 0.00172921, Final residual = 9.41581e-07, No Iterations 1
DICPCG:  Solving for p_rgh, Initial residual = 0.00491766, Final residual = 4.60317e-05, No Iterations 24
time step continuity errors : sum local = 1.20838e-06, global = -6.81574e-09, cumulative = -2.31933e-05
ExecutionTime = 14.66 s  ClockTime = 15 s

Time = 71

DILUPBiCGStab:  Solving for Ux, Initial residual = 0.00323483, Final residual = 9.50792e-06, No Iterations 1
DILUPBiCGStab:  Solving for Uy, Initial residual = 0.0054104, Final residual = 1.74188e-05, No Iterations 1
DILUPBiCGStab:  Solving for Uz, Initial residual = 0.00391144, Final residual = 1.29983e-05, No Iterations 1
DICPCG:  Solving for G, Initial residual = 0.00020284, Final residual = 1.96168e-05, No Iterations 23
DILUPBiCGStab:  Solving for h, Initial residual = 0.00171295, Final residual = 9.36507e-07, No Iterations 1
DICPCG:  Solving for p_rgh, Initial residual = 0.00481668, Final residual = 4.50048e-05, No Iterations 25
time step continuity errors : sum local = 1.17861e-06, global = -4.55023e-08, cumulative = -2.32388e-05
ExecutionTime = 14.87 s  ClockTime = 15 s

Time = 72

DILUPBiCGStab:  Solving for Ux, Initial residual = 0.00317446, Final residual = 9.33843e-06, No Iterations 1
DILUPBiCGStab:  Solving for Uy, Initial residual = 0.00537007, Final residual = 1.72141e-05, No Iterations 1
DILUPBiCGStab:  Solving for Uz, Initial residual = 0.00386683, Final residual = 1.28708e-05, No Iterations 1
DICPCG:  Solving for G, Initial residual = 0.000201102, Final residual = 1.91725e-05, No Iterations 23
DILUPBiCGStab:  Solving for h, Initial residual = 0.00169718, Final residual = 9.31581e-07, No Iterations 1
DICPCG:  Solving for p_rgh, Initial residual = 0.00471315, Final residual = 4.58451e-05, No Iterations 26
time step continuity errors : sum local = 1.19786e-06, global = 6.51906e-08, cumulative = -2.31736e-05
ExecutionTime = 15.1 s  ClockTime = 15 s

Time = 73

DILUPBiCGStab:  Solving for Ux, Initial residual = 0.00311588, Final residual = 9.17541e-06, No Iterations 1
DILUPBiCGStab:  Solving for Uy, Initial residual = 0.00533858, Final residual = 1.70742e-05, No Iterations 1
DILUPBiCGStab:  Solving for Uz, Initial residual = 0.00382284, Final residual = 1.27435e-05, No Iterations 1
DICPCG:  Solving for G, Initial residual = 0.000199098, Final residual = 1.96965e-05, No Iterations 23
DILUPBiCGStab:  Solving for h, Initial residual = 0.00168186, Final residual = 9.26782e-07, No Iterations 1
DICPCG:  Solving for p_rgh, Initial residual = 0.00461718, Final residual = 4.32793e-05, No Iterations 28
time step continuity errors : sum local = 1.12829e-06, global = 2.76655e-07, cumulative = -2.2897e-05
ExecutionTime = 15.31 s  ClockTime = 16 s

Time = 74

DILUPBiCGStab:  Solving for Ux, Initial residual = 0.00305994, Final residual = 9.01827e-06, No Iterations 1
DILUPBiCGStab:  Solving for Uy, Initial residual = 0.0053108, Final residual = 1.69597e-05, No Iterations 1
DILUPBiCGStab:  Solving for Uz, Initial residual = 0.00377942, Final residual = 1.26179e-05, No Iterations 1
DICPCG:  Solving for G, Initial residual = 0.000197578, Final residual = 1.91812e-05, No Iterations 23
DILUPBiCGStab:  Solving for h, Initial residual = 0.00166699, Final residual = 9.22101e-07, No Iterations 1
DICPCG:  Solving for p_rgh, Initial residual = 0.00452915, Final residual = 4.07298e-05, No Iterations 59
time step continuity errors : sum local = 1.05952e-06, global = 1.74645e-08, cumulative = -2.28795e-05
ExecutionTime = 15.54 s  ClockTime = 16 s

Time = 75

DILUPBiCGStab:  Solving for Ux, Initial residual = 0.00301304, Final residual = 8.8773e-06, No Iterations 1
DILUPBiCGStab:  Solving for Uy, Initial residual = 0.00528534, Final residual = 1.68826e-05, No Iterations 1
DILUPBiCGStab:  Solving for Uz, Initial residual = 0.00373345, Final residual = 1.24893e-05, No Iterations 1
DICPCG:  Solving for G, Initial residual = 0.0001956, Final residual = 1.85902e-05, No Iterations 24
DILUPBiCGStab:  Solving for h, Initial residual = 0.00165252, Final residual = 9.17529e-07, No Iterations 1
DICPCG:  Solving for p_rgh, Initial residual = 0.00445244, Final residual = 3.75101e-05, No Iterations 25
time step continuity errors : sum local = 9.7382e-07, global = 2.83474e-08, cumulative = -2.28512e-05
ExecutionTime = 15.76 s  ClockTime = 16 s

Time = 76

DILUPBiCGStab:  Solving for Ux, Initial residual = 0.00295685, Final residual = 8.71566e-06, No Iterations 1
DILUPBiCGStab:  Solving for Uy, Initial residual = 0.00526014, Final residual = 1.67543e-05, No Iterations 1
DILUPBiCGStab:  Solving for Uz, Initial residual = 0.00369452, Final residual = 1.23779e-05, No Iterations 1
DICPCG:  Solving for G, Initial residual = 0.000193416, Final residual = 1.91715e-05, No Iterations 23
DILUPBiCGStab:  Solving for h, Initial residual = 0.00163845, Final residual = 9.13047e-07, No Iterations 1
DICPCG:  Solving for p_rgh, Initial residual = 0.00436822, Final residual = 3.98121e-05, No Iterations 26
time step continuity errors : sum local = 1.03142e-06, global = 2.80593e-08, cumulative = -2.28231e-05
ExecutionTime = 15.98 s  ClockTime = 16 s

Time = 77

DILUPBiCGStab:  Solving for Ux, Initial residual = 0.00290403, Final residual = 8.56657e-06, No Iterations 1
DILUPBiCGStab:  Solving for Uy, Initial residual = 0.00522942, Final residual = 1.65996e-05, No Iterations 1
DILUPBiCGStab:  Solving for Uz, Initial residual = 0.00365748, Final residual = 1.22751e-05, No Iterations 1
DICPCG:  Solving for G, Initial residual = 0.000192483, Final residual = 1.86152e-05, No Iterations 24
DILUPBiCGStab:  Solving for h, Initial residual = 0.00162475, Final residual = 9.0866e-07, No Iterations 1
DICPCG:  Solving for p_rgh, Initial residual = 0.00428507, Final residual = 4.00704e-05, No Iterations 27
time step continuity errors : sum local = 1.03601e-06, global = 1.60806e-07, cumulative = -2.26623e-05
ExecutionTime = 16.19 s  ClockTime = 17 s

Time = 78

DILUPBiCGStab:  Solving for Ux, Initial residual = 0.00285299, Final residual = 8.42341e-06, No Iterations 1
DILUPBiCGStab:  Solving for Uy, Initial residual = 0.00520633, Final residual = 1.64981e-05, No Iterations 1
DILUPBiCGStab:  Solving for Uz, Initial residual = 0.00362078, Final residual = 1.21721e-05, No Iterations 1
DICPCG:  Solving for G, Initial residual = 0.000190281, Final residual = 1.7515e-05, No Iterations 24
DILUPBiCGStab:  Solving for h, Initial residual = 0.00161141, Final residual = 9.04367e-07, No Iterations 1
DICPCG:  Solving for p_rgh, Initial residual = 0.0042054, Final residual = 4.14534e-05, No Iterations 59
time step continuity errors : sum local = 1.06967e-06, global = 1.84605e-08, cumulative = -2.26438e-05
ExecutionTime = 16.42 s  ClockTime = 17 s

Time = 79

DILUPBiCGStab:  Solving for Ux, Initial residual = 0.00280887, Final residual = 8.29402e-06, No Iterations 1
DILUPBiCGStab:  Solving for Uy, Initial residual = 0.00519057, Final residual = 1.64462e-05, No Iterations 1
DILUPBiCGStab:  Solving for Uz, Initial residual = 0.00358164, Final residual = 1.20646e-05, No Iterations 1
DICPCG:  Solving for G, Initial residual = 0.000188135, Final residual = 1.84474e-05, No Iterations 24
DILUPBiCGStab:  Solving for h, Initial residual = 0.00159842, Final residual = 9.00159e-07, No Iterations 1
DICPCG:  Solving for p_rgh, Initial residual = 0.00413581, Final residual = 3.80349e-05, No Iterations 25
time step continuity errors : sum local = 9.79686e-07, global = 7.57285e-08, cumulative = -2.25681e-05
ExecutionTime = 16.63 s  ClockTime = 17 s

Time = 80

DILUPBiCGStab:  Solving for Ux, Initial residual = 0.00275763, Final residual = 8.1435e-06, No Iterations 1
DILUPBiCGStab:  Solving for Uy, Initial residual = 0.00517269, Final residual = 1.63499e-05, No Iterations 1
DILUPBiCGStab:  Solving for Uz, Initial residual = 0.00354796, Final residual = 1.197e-05, No Iterations 1
DICPCG:  Solving for G, Initial residual = 0.00018701, Final residual = 1.80777e-05, No Iterations 24
DILUPBiCGStab:  Solving for h, Initial residual = 0.00158577, Final residual = 8.96039e-07, No Iterations 1
DICPCG:  Solving for p_rgh, Initial residual = 0.00406237, Final residual = 3.55801e-05, No Iterations 27
time step continuity errors : sum local = 9.14745e-07, global = 1.50163e-07, cumulative = -2.2418e-05
ExecutionTime = 16.85 s  ClockTime = 17 s

Time = 81

DILUPBiCGStab:  Solving for Ux, Initial residual = 0.00271008, Final residual = 8.00722e-06, No Iterations 1
DILUPBiCGStab:  Solving for Uy, Initial residual = 0.00514625, Final residual = 1.62164e-05, No Iterations 1
DILUPBiCGStab:  Solving for Uz, Initial residual = 0.00351622, Final residual = 1.18859e-05, No Iterations 1
DICPCG:  Solving for G, Initial residual = 0.000185383, Final residual = 1.85057e-05, No Iterations 24
DILUPBiCGStab:  Solving for h, Initial residual = 0.00157344, Final residual = 8.91993e-07, No Iterations 1
DICPCG:  Solving for p_rgh, Initial residual = 0.00399189, Final residual = 3.73569e-05, No Iterations 60
time step continuity errors : sum local = 9.58693e-07, global = 1.39574e-08, cumulative = -2.2404e-05
ExecutionTime = 17.07 s  ClockTime = 17 s

Time = 82

DILUPBiCGStab:  Solving for Ux, Initial residual = 0.00266924, Final residual = 7.88925e-06, No Iterations 1
DILUPBiCGStab:  Solving for Uy, Initial residual = 0.00513218, Final residual = 1.61698e-05, No Iterations 1
DILUPBiCGStab:  Solving for Uz, Initial residual = 0.00348161, Final residual = 1.17927e-05, No Iterations 1
DICPCG:  Solving for G, Initial residual = 0.000184147, Final residual = 1.82e-05, No Iterations 24
DILUPBiCGStab:  Solving for h, Initial residual = 0.00156141, Final residual = 8.8802e-07, No Iterations 1
DICPCG:  Solving for p_rgh, Initial residual = 0.00392773, Final residual = 3.87412e-05, No Iterations 25
time step continuity errors : sum local = 9.92559e-07, global = 6.67953e-08, cumulative = -2.23372e-05
ExecutionTime = 17.27 s  ClockTime = 18 s

Time = 83

DILUPBiCGStab:  Solving for Ux, Initial residual = 0.00262073, Final residual = 7.74611e-06, No Iterations 1
DILUPBiCGStab:  Solving for Uy, Initial residual = 0.00512087, Final residual = 1.61026e-05, No Iterations 1
DILUPBiCGStab:  Solving for Uz, Initial residual = 0.00345117, Final residual = 1.17086e-05, No Iterations 1
DICPCG:  Solving for G, Initial residual = 0.00018272, Final residual = 1.61492e-05, No Iterations 25
DILUPBiCGStab:  Solving for h, Initial residual = 0.00154969, Final residual = 8.84112e-07, No Iterations 1
DICPCG:  Solving for p_rgh, Initial residual = 0.00385976, Final residual = 3.55651e-05, No Iterations 27
time step continuity errors : sum local = 9.09618e-07, global = 1.48436e-07, cumulative = -2.21888e-05
ExecutionTime = 17.46 s  ClockTime = 18 s

Time = 84

DILUPBiCGStab:  Solving for Ux, Initial residual = 0.00257665, Final residual = 7.61944e-06, No Iterations 1
DILUPBiCGStab:  Solving for Uy, Initial residual = 0.00509901, Final residual = 1.59927e-05, No Iterations 1
DILUPBiCGStab:  Solving for Uz, Initial residual = 0.00342254, Final residual = 1.16361e-05, No Iterations 1
DICPCG:  Solving for G, Initial residual = 0.000181636, Final residual = 1.77171e-05, No Iterations 24
DILUPBiCGStab:  Solving for h, Initial residual = 0.00153825, Final residual = 8.80263e-07, No Iterations 1
DICPCG:  Solving for p_rgh, Initial residual = 0.0037956, Final residual = 3.74391e-05, No Iterations 60
time step continuity errors : sum local = 9.55951e-07, global = 1.40696e-08, cumulative = -2.21747e-05
ExecutionTime = 17.66 s  ClockTime = 18 s

Time = 85

DILUPBiCGStab:  Solving for Ux, Initial residual = 0.00253945, Final residual = 7.51151e-06, No Iterations 1
DILUPBiCGStab:  Solving for Uy, Initial residual = 0.00508802, Final residual = 1.59558e-05, No Iterations 1
DILUPBiCGStab:  Solving for Uz, Initial residual = 0.00339104, Final residual = 1.1555e-05, No Iterations 1
DICPCG:  Solving for G, Initial residual = 0.000180175, Final residual = 1.63499e-05, No Iterations 25
DILUPBiCGStab:  Solving for h, Initial residual = 0.00152707, Final residual = 8.76467e-07, No Iterations 1
DICPCG:  Solving for p_rgh, Initial residual = 0.00373738, Final residual = 3.31825e-05, No Iterations 26
time step continuity errors : sum local = 8.45962e-07, global = 6.60271e-08, cumulative = -2.21087e-05
ExecutionTime = 17.86 s  ClockTime = 18 s

Time = 86

DILUPBiCGStab:  Solving for Ux, Initial residual = 0.00249399, Final residual = 7.37568e-06, No Iterations 1
DILUPBiCGStab:  Solving for Uy, Initial residual = 0.00507785, Final residual = 1.58899e-05, No Iterations 1
DILUPBiCGStab:  Solving for Uz, Initial residual = 0.00336399, Final residual = 1.1484e-05, No Iterations 1
DICPCG:  Solving for G, Initial residual = 0.000179178, Final residual = 1.62442e-05, No Iterations 25
DILUPBiCGStab:  Solving for h, Initial residual = 0.00151616, Final residual = 8.72716e-07, No Iterations 1
DICPCG:  Solving for p_rgh, Initial residual = 0.00367623, Final residual = 3.51508e-05, No Iterations 27
time step continuity errors : sum local = 8.94704e-07, global = 1.44258e-07, cumulative = -2.19644e-05
ExecutionTime = 18.05 s  ClockTime = 18 s

Time = 87

DILUPBiCGStab:  Solving for Ux, Initial residual = 0.00245291, Final residual = 7.25766e-06, No Iterations 1
DILUPBiCGStab:  Solving for Uy, Initial residual = 0.00506094, Final residual = 1.58057e-05, No Iterations 1
DILUPBiCGStab:  Solving for Uz, Initial residual = 0.00333794, Final residual = 1.14193e-05, No Iterations 1
DICPCG:  Solving for G, Initial residual = 0.000177555, Final residual = 1.65117e-05, No Iterations 25
DILUPBiCGStab:  Solving for h, Initial residual = 0.00150551, Final residual = 8.69012e-07, No Iterations 1
DICPCG:  Solving for p_rgh, Initial residual = 0.00361695, Final residual = 3.25126e-05, No Iterations 61
time step continuity errors : sum local = 8.26261e-07, global = 1.03085e-08, cumulative = -2.19541e-05
ExecutionTime = 18.27 s  ClockTime = 19 s

Time = 88

DILUPBiCGStab:  Solving for Ux, Initial residual = 0.00241899, Final residual = 7.16017e-06, No Iterations 1
DILUPBiCGStab:  Solving for Uy, Initial residual = 0.00505252, Final residual = 1.578e-05, No Iterations 1
DILUPBiCGStab:  Solving for Uz, Initial residual = 0.00330955, Final residual = 1.13484e-05, No Iterations 1
DICPCG:  Solving for G, Initial residual = 0.00017635, Final residual = 1.62464e-05, No Iterations 25
DILUPBiCGStab:  Solving for h, Initial residual = 0.00149511, Final residual = 8.6536e-07, No Iterations 1
DICPCG:  Solving for p_rgh, Initial residual = 0.00356581, Final residual = 3.31627e-05, No Iterations 26
time step continuity errors : sum local = 8.4157e-07, global = 6.09742e-08, cumulative = -2.18931e-05
ExecutionTime = 18.46 s  ClockTime = 19 s

Time = 89

DILUPBiCGStab:  Solving for Ux, Initial residual = 0.00237622, Final residual = 7.03129e-06, No Iterations 1
DILUPBiCGStab:  Solving for Uy, Initial residual = 0.00504451, Final residual = 1.57213e-05, No Iterations 1
DILUPBiCGStab:  Solving for Uz, Initial residual = 0.0032856, Final residual = 1.12871e-05, No Iterations 1
DICPCG:  Solving for G, Initial residual = 0.00017527, Final residual = 1.65349e-05, No Iterations 25
DILUPBiCGStab:  Solving for h, Initial residual = 0.00148494, Final residual = 8.61753e-07, No Iterations 1
DICPCG:  Solving for p_rgh, Initial residual = 0.00350854, Final residual = 3.47016e-05, No Iterations 27
time step continuity errors : sum local = 8.79307e-07, global = 1.37428e-07, cumulative = -2.17557e-05
ExecutionTime = 18.66 s  ClockTime = 19 s

Time = 90

DILUPBiCGStab:  Solving for Ux, Initial residual = 0.00233821, Final residual = 6.92223e-06, No Iterations 1
DILUPBiCGStab:  Solving for Uy, Initial residual = 0.00502988, Final residual = 1.56478e-05, No Iterations 1
DILUPBiCGStab:  Solving for Uz, Initial residual = 0.00326259, Final residual = 1.1231e-05, No Iterations 1
DICPCG:  Solving for G, Initial residual = 0.000174127, Final residual = 1.63322e-05, No Iterations 25
DILUPBiCGStab:  Solving for h, Initial residual = 0.001475, Final residual = 8.58186e-07, No Iterations 1
DICPCG:  Solving for p_rgh, Initial residual = 0.00345379, Final residual = 3.21925e-05, No Iterations 61
time step continuity errors : sum local = 8.14559e-07, global = 1.02792e-08, cumulative = -2.17454e-05
ExecutionTime = 18.89 s  ClockTime = 19 s

Time = 91

DILUPBiCGStab:  Solving for Ux, Initial residual = 0.00230739, Final residual = 6.83442e-06, No Iterations 1
DILUPBiCGStab:  Solving for Uy, Initial residual = 0.00502419, Final residual = 1.56317e-05, No Iterations 1
DILUPBiCGStab:  Solving for Uz, Initial residual = 0.0032371, Final residual = 1.11677e-05, No Iterations 1
DICPCG:  Solving for G, Initial residual = 0.00017306, Final residual = 1.65461e-05, No Iterations 25
DILUPBiCGStab:  Solving for h, Initial residual = 0.00146527, Final residual = 8.54637e-07, No Iterations 1
DICPCG:  Solving for p_rgh, Initial residual = 0.00340797, Final residual = 3.2974e-05, No Iterations 26
time step continuity errors : sum local = 8.33228e-07, global = 6.18658e-08, cumulative = -2.16836e-05
ExecutionTime = 19.09 s  ClockTime = 19 s

Time = 92

DILUPBiCGStab:  Solving for Ux, Initial residual = 0.00226745, Final residual = 6.7127e-06, No Iterations 1
DILUPBiCGStab:  Solving for Uy, Initial residual = 0.005018, Final residual = 1.55819e-05, No Iterations 1
DILUPBiCGStab:  Solving for Uz, Initial residual = 0.00321585, Final residual = 1.11146e-05, No Iterations 1
DICPCG:  Solving for G, Initial residual = 0.000172022, Final residual = 1.63857e-05, No Iterations 25
DILUPBiCGStab:  Solving for h, Initial residual = 0.00145575, Final residual = 8.51134e-07, No Iterations 1
DICPCG:  Solving for p_rgh, Initial residual = 0.00335604, Final residual = 3.1325e-05, No Iterations 28
time step continuity errors : sum local = 7.90469e-07, global = 1.41438e-07, cumulative = -2.15421e-05
ExecutionTime = 19.3 s  ClockTime = 20 s

Time = 93

DILUPBiCGStab:  Solving for Ux, Initial residual = 0.00223241, Final residual = 6.61151e-06, No Iterations 1
DILUPBiCGStab:  Solving for Uy, Initial residual = 0.00500483, Final residual = 1.55143e-05, No Iterations 1
DILUPBiCGStab:  Solving for Uz, Initial residual = 0.00319536, Final residual = 1.10672e-05, No Iterations 1
DICPCG:  Solving for G, Initial residual = 0.000170981, Final residual = 1.65503e-05, No Iterations 25
DILUPBiCGStab:  Solving for h, Initial residual = 0.00144645, Final residual = 8.47681e-07, No Iterations 1
DICPCG:  Solving for p_rgh, Initial residual = 0.00330655, Final residual = 3.14964e-05, No Iterations 61
time step continuity errors : sum local = 7.9373e-07, global = 1.01367e-08, cumulative = -2.1532e-05
ExecutionTime = 19.53 s  ClockTime = 20 s

Time = 94

DILUPBiCGStab:  Solving for Ux, Initial residual = 0.00220408, Final residual = 6.53038e-06, No Iterations 1
DILUPBiCGStab:  Solving for Uy, Initial residual = 0.00500293, Final residual = 1.55137e-05, No Iterations 1
DILUPBiCGStab:  Solving for Uz, Initial residual = 0.00317218, Final residual = 1.10107e-05, No Iterations 1
DICPCG:  Solving for G, Initial residual = 0.000170006, Final residual = 1.64157e-05, No Iterations 25
DILUPBiCGStab:  Solving for h, Initial residual = 0.00143734, Final residual = 8.44239e-07, No Iterations 1
DICPCG:  Solving for p_rgh, Initial residual = 0.00326468, Final residual = 2.69276e-05, No Iterations 27
time step continuity errors : sum local = 6.77751e-07, global = 5.97845e-08, cumulative = -2.14722e-05
ExecutionTime = 19.74 s  ClockTime = 20 s

Time = 95

DILUPBiCGStab:  Solving for Ux, Initial residual = 0.0021669, Final residual = 6.41552e-06, No Iterations 1
DILUPBiCGStab:  Solving for Uy, Initial residual = 0.00499727, Final residual = 1.54646e-05, No Iterations 1
DILUPBiCGStab:  Solving for Uz, Initial residual = 0.00315327, Final residual = 1.0966e-05, No Iterations 1
DICPCG:  Solving for G, Initial residual = 0.000169006, Final residual = 1.65417e-05, No Iterations 25
DILUPBiCGStab:  Solving for h, Initial residual = 0.00142844, Final residual = 8.40825e-07, No Iterations 1
DICPCG:  Solving for p_rgh, Initial residual = 0.00321761, Final residual = 3.08698e-05, No Iterations 28
time step continuity errors : sum local = 7.75966e-07, global = 1.33144e-07, cumulative = -2.13391e-05
ExecutionTime = 19.95 s  ClockTime = 20 s

Time = 96

DILUPBiCGStab:  Solving for Ux, Initial residual = 0.00213428, Final residual = 6.32051e-06, No Iterations 1
DILUPBiCGStab:  Solving for Uy, Initial residual = 0.00498731, Final residual = 1.54121e-05, No Iterations 1
DILUPBiCGStab:  Solving for Uz, Initial residual = 0.00313489, Final residual = 1.09246e-05, No Iterations 1
DICPCG:  Solving for G, Initial residual = 0.000168092, Final residual = 1.64118e-05, No Iterations 25
DILUPBiCGStab:  Solving for h, Initial residual = 0.00141972, Final residual = 8.37444e-07, No Iterations 1
DICPCG:  Solving for p_rgh, Initial residual = 0.00317187, Final residual = 3.14598e-05, No Iterations 61
time step continuity errors : sum local = 7.89797e-07, global = 1.01973e-08, cumulative = -2.13289e-05
ExecutionTime = 20.18 s  ClockTime = 21 s

Time = 97

DILUPBiCGStab:  Solving for Ux, Initial residual = 0.00210848, Final residual = 6.24686e-06, No Iterations 1
DILUPBiCGStab:  Solving for Uy, Initial residual = 0.00498771, Final residual = 1.54167e-05, No Iterations 1
DILUPBiCGStab:  Solving for Uz, Initial residual = 0.00311401, Final residual = 1.08748e-05, No Iterations 1
DICPCG:  Solving for G, Initial residual = 0.000167138, Final residual = 1.65294e-05, No Iterations 25
[...]
DICPCG:  Solving for G, Initial residual = 6.10907e-05, Final residual = 5.20302e-06, No Iterations 32
DILUPBiCGStab:  Solving for h, Initial residual = 0.000176026, Final residual = 1.05146e-07, No Iterations 1
DICPCG:  Solving for p_rgh, Initial residual = 3.43291e-05, Final residual = 9.01587e-07, No Iterations 59
time step continuity errors : sum local = 3.01456e-08, global = -4.73033e-11, cumulative = -1.94105e-06
ExecutionTime = 1069.2 s  ClockTime = 1077 s

Time = 4977

DILUPBiCGStab:  Solving for Ux, Initial residual = 8.30748e-06, Final residual = 3.49177e-07, No Iterations 1
DILUPBiCGStab:  Solving for Uy, Initial residual = 1.1247e-05, Final residual = 4.36286e-07, No Iterations 1
DILUPBiCGStab:  Solving for Uz, Initial residual = 8.28706e-06, Final residual = 2.88541e-07, No Iterations 1
DICPCG:  Solving for G, Initial residual = 6.10784e-05, Final residual = 5.22566e-06, No Iterations 32
DILUPBiCGStab:  Solving for h, Initial residual = 0.000176015, Final residual = 1.0514e-07, No Iterations 1
DICPCG:  Solving for p_rgh, Initial residual = 3.43284e-05, Final residual = 9.01841e-07, No Iterations 59
time step continuity errors : sum local = 3.01545e-08, global = -4.74447e-11, cumulative = -1.9411e-06
ExecutionTime = 1069.4 s  ClockTime = 1077 s

Time = 4978

DILUPBiCGStab:  Solving for Ux, Initial residual = 8.30701e-06, Final residual = 3.49158e-07, No Iterations 1
DILUPBiCGStab:  Solving for Uy, Initial residual = 1.12483e-05, Final residual = 4.36361e-07, No Iterations 1
DILUPBiCGStab:  Solving for Uz, Initial residual = 8.28679e-06, Final residual = 2.88544e-07, No Iterations 1
DICPCG:  Solving for G, Initial residual = 6.1085e-05, Final residual = 5.20199e-06, No Iterations 32
DILUPBiCGStab:  Solving for h, Initial residual = 0.000176004, Final residual = 1.05134e-07, No Iterations 1
DICPCG:  Solving for p_rgh, Initial residual = 3.4323e-05, Final residual = 9.04086e-07, No Iterations 59
time step continuity errors : sum local = 3.02299e-08, global = -4.72619e-11, cumulative = -1.94114e-06
ExecutionTime = 1069.6 s  ClockTime = 1077 s

Time = 4979

DILUPBiCGStab:  Solving for Ux, Initial residual = 8.30643e-06, Final residual = 3.49158e-07, No Iterations 1
DILUPBiCGStab:  Solving for Uy, Initial residual = 1.12497e-05, Final residual = 4.36422e-07, No Iterations 1
DILUPBiCGStab:  Solving for Uz, Initial residual = 8.28653e-06, Final residual = 2.88545e-07, No Iterations 1
DICPCG:  Solving for G, Initial residual = 6.10726e-05, Final residual = 5.22522e-06, No Iterations 32
DILUPBiCGStab:  Solving for h, Initial residual = 0.000175994, Final residual = 1.05128e-07, No Iterations 1
DICPCG:  Solving for p_rgh, Initial residual = 3.43217e-05, Final residual = 8.99806e-07, No Iterations 59
time step continuity errors : sum local = 3.00871e-08, global = -4.72955e-11, cumulative = -1.94119e-06
ExecutionTime = 1069.79 s  ClockTime = 1077 s

Time = 4980

DILUPBiCGStab:  Solving for Ux, Initial residual = 8.30599e-06, Final residual = 3.49135e-07, No Iterations 1
DILUPBiCGStab:  Solving for Uy, Initial residual = 1.1251e-05, Final residual = 4.36496e-07, No Iterations 1
DILUPBiCGStab:  Solving for Uz, Initial residual = 8.28627e-06, Final residual = 2.88547e-07, No Iterations 1
DICPCG:  Solving for G, Initial residual = 6.10793e-05, Final residual = 5.201e-06, No Iterations 32
DILUPBiCGStab:  Solving for h, Initial residual = 0.000175983, Final residual = 1.05122e-07, No Iterations 1
DICPCG:  Solving for p_rgh, Initial residual = 3.43165e-05, Final residual = 9.01047e-07, No Iterations 59
time step continuity errors : sum local = 3.0129e-08, global = -4.72523e-11, cumulative = -1.94124e-06
ExecutionTime = 1070.01 s  ClockTime = 1078 s

Time = 4981

DILUPBiCGStab:  Solving for Ux, Initial residual = 8.30543e-06, Final residual = 3.49128e-07, No Iterations 1
DILUPBiCGStab:  Solving for Uy, Initial residual = 1.12523e-05, Final residual = 4.36556e-07, No Iterations 1
DILUPBiCGStab:  Solving for Uz, Initial residual = 8.28601e-06, Final residual = 2.8855e-07, No Iterations 1
DICPCG:  Solving for G, Initial residual = 6.10669e-05, Final residual = 5.22481e-06, No Iterations 32
DILUPBiCGStab:  Solving for h, Initial residual = 0.000175972, Final residual = 1.05116e-07, No Iterations 1
DICPCG:  Solving for p_rgh, Initial residual = 3.43172e-05, Final residual = 9.01087e-07, No Iterations 59
time step continuity errors : sum local = 3.01307e-08, global = -4.73187e-11, cumulative = -1.94129e-06
ExecutionTime = 1070.23 s  ClockTime = 1078 s

Time = 4982

DILUPBiCGStab:  Solving for Ux, Initial residual = 8.30495e-06, Final residual = 3.49109e-07, No Iterations 1
DILUPBiCGStab:  Solving for Uy, Initial residual = 1.12536e-05, Final residual = 4.36634e-07, No Iterations 1
DILUPBiCGStab:  Solving for Uz, Initial residual = 8.28576e-06, Final residual = 2.88551e-07, No Iterations 1
DICPCG:  Solving for G, Initial residual = 6.10737e-05, Final residual = 5.20004e-06, No Iterations 32
DILUPBiCGStab:  Solving for h, Initial residual = 0.000175961, Final residual = 1.05109e-07, No Iterations 1
DICPCG:  Solving for p_rgh, Initial residual = 3.43105e-05, Final residual = 9.03612e-07, No Iterations 59
time step continuity errors : sum local = 3.02155e-08, global = -4.70966e-11, cumulative = -1.94133e-06
ExecutionTime = 1070.46 s  ClockTime = 1078 s

Time = 4983

DILUPBiCGStab:  Solving for Ux, Initial residual = 8.30439e-06, Final residual = 3.49112e-07, No Iterations 1
DILUPBiCGStab:  Solving for Uy, Initial residual = 1.1255e-05, Final residual = 4.36691e-07, No Iterations 1
DILUPBiCGStab:  Solving for Uz, Initial residual = 8.28551e-06, Final residual = 2.88554e-07, No Iterations 1
DICPCG:  Solving for G, Initial residual = 6.10612e-05, Final residual = 5.22443e-06, No Iterations 32
DILUPBiCGStab:  Solving for h, Initial residual = 0.000175951, Final residual = 1.05103e-07, No Iterations 1
DICPCG:  Solving for p_rgh, Initial residual = 3.43096e-05, Final residual = 8.9855e-07, No Iterations 59
time step continuity errors : sum local = 3.00465e-08, global = -4.71027e-11, cumulative = -1.94138e-06
ExecutionTime = 1070.67 s  ClockTime = 1078 s

Time = 4984

DILUPBiCGStab:  Solving for Ux, Initial residual = 8.30394e-06, Final residual = 3.49087e-07, No Iterations 1
DILUPBiCGStab:  Solving for Uy, Initial residual = 1.12563e-05, Final residual = 4.36767e-07, No Iterations 1
DILUPBiCGStab:  Solving for Uz, Initial residual = 8.28525e-06, Final residual = 2.88555e-07, No Iterations 1
DICPCG:  Solving for G, Initial residual = 6.10681e-05, Final residual = 5.1991e-06, No Iterations 32
DILUPBiCGStab:  Solving for h, Initial residual = 0.00017594, Final residual = 1.05097e-07, No Iterations 1
DICPCG:  Solving for p_rgh, Initial residual = 3.4304e-05, Final residual = 8.99981e-07, No Iterations 59
time step continuity errors : sum local = 3.00947e-08, global = -4.71106e-11, cumulative = -1.94143e-06
ExecutionTime = 1070.89 s  ClockTime = 1078 s

Time = 4985

DILUPBiCGStab:  Solving for Ux, Initial residual = 8.3034e-06, Final residual = 3.4908e-07, No Iterations 1
DILUPBiCGStab:  Solving for Uy, Initial residual = 1.12576e-05, Final residual = 4.36825e-07, No Iterations 1
DILUPBiCGStab:  Solving for Uz, Initial residual = 8.285e-06, Final residual = 2.88559e-07, No Iterations 1
DICPCG:  Solving for G, Initial residual = 6.10556e-05, Final residual = 5.22407e-06, No Iterations 32
DILUPBiCGStab:  Solving for h, Initial residual = 0.000175929, Final residual = 1.05091e-07, No Iterations 1
DICPCG:  Solving for p_rgh, Initial residual = 3.43053e-05, Final residual = 8.99995e-07, No Iterations 59
time step continuity errors : sum local = 3.00956e-08, global = -4.71688e-11, cumulative = -1.94147e-06
ExecutionTime = 1071.12 s  ClockTime = 1079 s

Time = 4986

DILUPBiCGStab:  Solving for Ux, Initial residual = 8.30291e-06, Final residual = 3.49061e-07, No Iterations 1
DILUPBiCGStab:  Solving for Uy, Initial residual = 1.12589e-05, Final residual = 4.36905e-07, No Iterations 1
DILUPBiCGStab:  Solving for Uz, Initial residual = 8.28475e-06, Final residual = 2.88559e-07, No Iterations 1
DICPCG:  Solving for G, Initial residual = 6.10625e-05, Final residual = 5.19817e-06, No Iterations 32
DILUPBiCGStab:  Solving for h, Initial residual = 0.000175918, Final residual = 1.05085e-07, No Iterations 1
DICPCG:  Solving for p_rgh, Initial residual = 3.4298e-05, Final residual = 9.02488e-07, No Iterations 59
time step continuity errors : sum local = 3.01793e-08, global = -4.69343e-11, cumulative = -1.94152e-06
ExecutionTime = 1071.33 s  ClockTime = 1079 s

Time = 4987

DILUPBiCGStab:  Solving for Ux, Initial residual = 8.30236e-06, Final residual = 3.49064e-07, No Iterations 1
DILUPBiCGStab:  Solving for Uy, Initial residual = 1.12603e-05, Final residual = 4.36961e-07, No Iterations 1
DILUPBiCGStab:  Solving for Uz, Initial residual = 8.28451e-06, Final residual = 2.88563e-07, No Iterations 1
DICPCG:  Solving for G, Initial residual = 6.10499e-05, Final residual = 5.22374e-06, No Iterations 32
DILUPBiCGStab:  Solving for h, Initial residual = 0.000175908, Final residual = 1.05079e-07, No Iterations 1
DICPCG:  Solving for p_rgh, Initial residual = 3.42975e-05, Final residual = 8.97064e-07, No Iterations 59
time step continuity errors : sum local = 2.99983e-08, global = -4.6922e-11, cumulative = -1.94157e-06
ExecutionTime = 1071.55 s  ClockTime = 1079 s

Time = 4988

DILUPBiCGStab:  Solving for Ux, Initial residual = 8.30191e-06, Final residual = 3.4904e-07, No Iterations 1
DILUPBiCGStab:  Solving for Uy, Initial residual = 1.12616e-05, Final residual = 4.37037e-07, No Iterations 1
DILUPBiCGStab:  Solving for Uz, Initial residual = 8.28426e-06, Final residual = 2.88564e-07, No Iterations 1
DICPCG:  Solving for G, Initial residual = 6.10569e-05, Final residual = 5.19725e-06, No Iterations 32
DILUPBiCGStab:  Solving for h, Initial residual = 0.000175897, Final residual = 1.05073e-07, No Iterations 1
DICPCG:  Solving for p_rgh, Initial residual = 3.42914e-05, Final residual = 8.98791e-07, No Iterations 59
time step continuity errors : sum local = 3.00564e-08, global = -4.69158e-11, cumulative = -1.94161e-06
ExecutionTime = 1071.76 s  ClockTime = 1079 s

Time = 4989

DILUPBiCGStab:  Solving for Ux, Initial residual = 8.30138e-06, Final residual = 3.49032e-07, No Iterations 1
DILUPBiCGStab:  Solving for Uy, Initial residual = 1.12629e-05, Final residual = 4.37095e-07, No Iterations 1
DILUPBiCGStab:  Solving for Uz, Initial residual = 8.28403e-06, Final residual = 2.88569e-07, No Iterations 1
DICPCG:  Solving for G, Initial residual = 6.10442e-05, Final residual = 5.22342e-06, No Iterations 32
DILUPBiCGStab:  Solving for h, Initial residual = 0.000175886, Final residual = 1.05067e-07, No Iterations 1
DICPCG:  Solving for p_rgh, Initial residual = 3.42931e-05, Final residual = 8.98401e-07, No Iterations 59
time step continuity errors : sum local = 3.00437e-08, global = -4.69532e-11, cumulative = -1.94166e-06
ExecutionTime = 1071.97 s  ClockTime = 1080 s

Time = 4990

DILUPBiCGStab:  Solving for Ux, Initial residual = 8.30088e-06, Final residual = 3.49014e-07, No Iterations 1
DILUPBiCGStab:  Solving for Uy, Initial residual = 1.12642e-05, Final residual = 4.37177e-07, No Iterations 1
DILUPBiCGStab:  Solving for Uz, Initial residual = 8.28379e-06, Final residual = 2.88569e-07, No Iterations 1
DICPCG:  Solving for G, Initial residual = 6.10513e-05, Final residual = 5.19632e-06, No Iterations 32
DILUPBiCGStab:  Solving for h, Initial residual = 0.000175875, Final residual = 1.0506e-07, No Iterations 1
DICPCG:  Solving for p_rgh, Initial residual = 3.42855e-05, Final residual = 8.88297e-07, No Iterations 59
time step continuity errors : sum local = 2.97062e-08, global = -4.56919e-11, cumulative = -1.94171e-06
ExecutionTime = 1072.2 s  ClockTime = 1080 s

Time = 4991

DILUPBiCGStab:  Solving for Ux, Initial residual = 8.30021e-06, Final residual = 3.49028e-07, No Iterations 1
DILUPBiCGStab:  Solving for Uy, Initial residual = 1.12656e-05, Final residual = 4.37251e-07, No Iterations 1
DILUPBiCGStab:  Solving for Uz, Initial residual = 8.28357e-06, Final residual = 2.88572e-07, No Iterations 1
DICPCG:  Solving for G, Initial residual = 6.10386e-05, Final residual = 5.22313e-06, No Iterations 32
DILUPBiCGStab:  Solving for h, Initial residual = 0.000175865, Final residual = 1.05054e-07, No Iterations 1
DICPCG:  Solving for p_rgh, Initial residual = 3.4288e-05, Final residual = 8.9635e-07, No Iterations 59
time step continuity errors : sum local = 2.99758e-08, global = -4.62772e-11, cumulative = -1.94175e-06
ExecutionTime = 1072.41 s  ClockTime = 1080 s

Time = 4992

DILUPBiCGStab:  Solving for Ux, Initial residual = 8.30004e-06, Final residual = 3.48991e-07, No Iterations 1
DILUPBiCGStab:  Solving for Uy, Initial residual = 1.12669e-05, Final residual = 4.37273e-07, No Iterations 1
DILUPBiCGStab:  Solving for Uz, Initial residual = 8.28331e-06, Final residual = 2.88578e-07, No Iterations 1
DICPCG:  Solving for G, Initial residual = 6.10457e-05, Final residual = 5.1954e-06, No Iterations 32
DILUPBiCGStab:  Solving for h, Initial residual = 0.000175854, Final residual = 1.05048e-07, No Iterations 1
DICPCG:  Solving for p_rgh, Initial residual = 3.42876e-05, Final residual = 8.98136e-07, No Iterations 59
time step continuity errors : sum local = 3.00359e-08, global = -4.71226e-11, cumulative = -1.9418e-06
ExecutionTime = 1072.63 s  ClockTime = 1080 s

Time = 4993

DILUPBiCGStab:  Solving for Ux, Initial residual = 8.29941e-06, Final residual = 3.48976e-07, No Iterations 1
DILUPBiCGStab:  Solving for Uy, Initial residual = 1.12683e-05, Final residual = 4.37383e-07, No Iterations 1
DILUPBiCGStab:  Solving for Uz, Initial residual = 8.28309e-06, Final residual = 2.88576e-07, No Iterations 1
DICPCG:  Solving for G, Initial residual = 6.10329e-05, Final residual = 5.22284e-06, No Iterations 32
DILUPBiCGStab:  Solving for h, Initial residual = 0.000175843, Final residual = 1.05042e-07, No Iterations 1
DICPCG:  Solving for p_rgh, Initial residual = 3.42793e-05, Final residual = 8.97734e-07, No Iterations 59
time step continuity errors : sum local = 3.00228e-08, global = -4.69678e-11, cumulative = -1.94185e-06
ExecutionTime = 1072.85 s  ClockTime = 1080 s

Time = 4994

DILUPBiCGStab:  Solving for Ux, Initial residual = 8.29878e-06, Final residual = 3.4897e-07, No Iterations 1
DILUPBiCGStab:  Solving for Uy, Initial residual = 1.12696e-05, Final residual = 4.37445e-07, No Iterations 1
DILUPBiCGStab:  Solving for Uz, Initial residual = 8.28289e-06, Final residual = 2.88584e-07, No Iterations 1
DICPCG:  Solving for G, Initial residual = 6.10401e-05, Final residual = 5.19446e-06, No Iterations 32
DILUPBiCGStab:  Solving for h, Initial residual = 0.000175832, Final residual = 1.05036e-07, No Iterations 1
DICPCG:  Solving for p_rgh, Initial residual = 3.42777e-05, Final residual = 8.95681e-07, No Iterations 59
time step continuity errors : sum local = 2.99545e-08, global = -4.65729e-11, cumulative = -1.94189e-06
ExecutionTime = 1073.06 s  ClockTime = 1081 s

Time = 4995

DILUPBiCGStab:  Solving for Ux, Initial residual = 8.29837e-06, Final residual = 3.48959e-07, No Iterations 1
DILUPBiCGStab:  Solving for Uy, Initial residual = 1.12708e-05, Final residual = 4.37515e-07, No Iterations 1
DILUPBiCGStab:  Solving for Uz, Initial residual = 8.28265e-06, Final residual = 2.88582e-07, No Iterations 1
DICPCG:  Solving for G, Initial residual = 6.10272e-05, Final residual = 5.22258e-06, No Iterations 32
DILUPBiCGStab:  Solving for h, Initial residual = 0.000175822, Final residual = 1.0503e-07, No Iterations 1
DICPCG:  Solving for p_rgh, Initial residual = 3.42706e-05, Final residual = 8.98172e-07, No Iterations 59
time step continuity errors : sum local = 3.00382e-08, global = -4.63785e-11, cumulative = -1.94194e-06
ExecutionTime = 1073.27 s  ClockTime = 1081 s

Time = 4996

DILUPBiCGStab:  Solving for Ux, Initial residual = 8.29788e-06, Final residual = 3.48957e-07, No Iterations 1
DILUPBiCGStab:  Solving for Uy, Initial residual = 1.12722e-05, Final residual = 4.37566e-07, No Iterations 1
DILUPBiCGStab:  Solving for Uz, Initial residual = 8.28242e-06, Final residual = 2.88588e-07, No Iterations 1
DICPCG:  Solving for G, Initial residual = 6.10345e-05, Final residual = 5.19351e-06, No Iterations 32
DILUPBiCGStab:  Solving for h, Initial residual = 0.000175811, Final residual = 1.05024e-07, No Iterations 1
DICPCG:  Solving for p_rgh, Initial residual = 3.42704e-05, Final residual = 8.94745e-07, No Iterations 59
time step continuity errors : sum local = 2.99239e-08, global = -4.64821e-11, cumulative = -1.94199e-06
ExecutionTime = 1073.49 s  ClockTime = 1081 s

Time = 4997

DILUPBiCGStab:  Solving for Ux, Initial residual = 8.29738e-06, Final residual = 3.48935e-07, No Iterations 1
DILUPBiCGStab:  Solving for Uy, Initial residual = 1.12736e-05, Final residual = 4.37649e-07, No Iterations 1
DILUPBiCGStab:  Solving for Uz, Initial residual = 8.28221e-06, Final residual = 2.88588e-07, No Iterations 1
DICPCG:  Solving for G, Initial residual = 6.10216e-05, Final residual = 5.22232e-06, No Iterations 32
DILUPBiCGStab:  Solving for h, Initial residual = 0.0001758, Final residual = 1.05017e-07, No Iterations 1
DICPCG:  Solving for p_rgh, Initial residual = 3.42648e-05, Final residual = 8.98793e-07, No Iterations 59
time step continuity errors : sum local = 3.00596e-08, global = -4.64274e-11, cumulative = -1.94203e-06
ExecutionTime = 1073.69 s  ClockTime = 1081 s

Time = 4998

DILUPBiCGStab:  Solving for Ux, Initial residual = 8.29685e-06, Final residual = 3.4893e-07, No Iterations 1
DILUPBiCGStab:  Solving for Uy, Initial residual = 1.12749e-05, Final residual = 4.37704e-07, No Iterations 1
DILUPBiCGStab:  Solving for Uz, Initial residual = 8.282e-06, Final residual = 2.88595e-07, No Iterations 1
DICPCG:  Solving for G, Initial residual = 6.1029e-05, Final residual = 5.19253e-06, No Iterations 32
DILUPBiCGStab:  Solving for h, Initial residual = 0.00017579, Final residual = 1.05011e-07, No Iterations 1
DICPCG:  Solving for p_rgh, Initial residual = 3.4265e-05, Final residual = 8.93464e-07, No Iterations 59
time step continuity errors : sum local = 2.98818e-08, global = -4.64565e-11, cumulative = -1.94208e-06
ExecutionTime = 1073.9 s  ClockTime = 1081 s

Time = 4999

DILUPBiCGStab:  Solving for Ux, Initial residual = 8.29639e-06, Final residual = 3.4891e-07, No Iterations 1
DILUPBiCGStab:  Solving for Uy, Initial residual = 1.12762e-05, Final residual = 4.37787e-07, No Iterations 1
DILUPBiCGStab:  Solving for Uz, Initial residual = 8.28178e-06, Final residual = 2.88594e-07, No Iterations 1
DICPCG:  Solving for G, Initial residual = 6.10159e-05, Final residual = 5.22208e-06, No Iterations 32
DILUPBiCGStab:  Solving for h, Initial residual = 0.000175779, Final residual = 1.05005e-07, No Iterations 1
DICPCG:  Solving for p_rgh, Initial residual = 3.42591e-05, Final residual = 8.98859e-07, No Iterations 59
time step continuity errors : sum local = 3.00625e-08, global = -4.64045e-11, cumulative = -1.94213e-06
ExecutionTime = 1074.12 s  ClockTime = 1082 s

Time = 5000

DILUPBiCGStab:  Solving for Ux, Initial residual = 8.29588e-06, Final residual = 3.48906e-07, No Iterations 1
DILUPBiCGStab:  Solving for Uy, Initial residual = 1.12776e-05, Final residual = 4.37839e-07, No Iterations 1
DILUPBiCGStab:  Solving for Uz, Initial residual = 8.28158e-06, Final residual = 2.88602e-07, No Iterations 1
DICPCG:  Solving for G, Initial residual = 6.10234e-05, Final residual = 5.19154e-06, No Iterations 32
DILUPBiCGStab:  Solving for h, Initial residual = 0.000175768, Final residual = 1.04999e-07, No Iterations 1
DICPCG:  Solving for p_rgh, Initial residual = 3.42591e-05, Final residual = 8.9313e-07, No Iterations 59
time step continuity errors : sum local = 2.98713e-08, global = -4.64351e-11, cumulative = -1.94217e-06
ExecutionTime = 1074.34 s  ClockTime = 1082 s

End

Finalising parallel run
