/*---------------------------------------------------------------------------*\
  =========                 |
  \\      /  F ield         | OpenFOAM: The Open Source CFD Toolbox
   \\    /   O peration     | Website:  https://openfoam.org
    \\  /    A nd           | Version:  9
     \\/     M anipulation  |
\*---------------------------------------------------------------------------*/
Build  : 9-89839ae3b8cd
Exec   : buoyantSimpleFoam -parallel
Date   : Apr 08 2022
Time   : 11:51:59
Host   : "0b4a0c9cd4c1"
PID    : 12438
I/O    : uncollated
Case   : /home/openfoam/STL_ThermalZones/STL_IGU_55_N1_AER.5
nProcs : 16
Slaves : 
15
(
"0b4a0c9cd4c1.12439"
"0b4a0c9cd4c1.12440"
"0b4a0c9cd4c1.12441"
"0b4a0c9cd4c1.12442"
"0b4a0c9cd4c1.12443"
"0b4a0c9cd4c1.12444"
"0b4a0c9cd4c1.12445"
"0b4a0c9cd4c1.12446"
"0b4a0c9cd4c1.12447"
"0b4a0c9cd4c1.12448"
"0b4a0c9cd4c1.12449"
"0b4a0c9cd4c1.12450"
"0b4a0c9cd4c1.12451"
"0b4a0c9cd4c1.12452"
"0b4a0c9cd4c1.12453"
)

Pstream initialised with:
    floatTransfer      : 0
    nProcsSimpleSum    : 0
    commsType          : nonBlocking
    polling iterations : 0
sigFpe : Enabling floating point exception trapping (FOAM_SIGFPE).
fileModificationChecking : Monitoring run-time modified files using timeStampMaster (fileModificationSkew 10)
allowSystemOperations : Allowing user-supplied system call operations

// * * * * * * * * * * * * * * * * * * * * * * * * * * * * * * * * * * * * * //
Create time

Create mesh for time = 0


SIMPLE: Convergence criteria found
        p_rgh: tolerance 0.0001
        U: tolerance 0.0001
        h: tolerance 0.0001
        G: tolerance 1e-05
        "(k|epsilon|omega)": tolerance 0.0001

Reading thermophysical properties

Selecting thermodynamics package 
{
    type            heRhoThermo;
    mixture         pureMixture;
    transport       const;
    thermo          hConst;
    equationOfState perfectGas;
    specie          specie;
    energy          sensibleEnthalpy;
}

Reading field U

Reading/calculating face flux field phi

Creating turbulence model

Selecting turbulence model type RAS
Selecting RAS turbulence model kEpsilon
RAS
{
    model           kEpsilon;
    turbulence      off;
    printCoeffs     on;
    Cmu             0.09;
    C1              1.44;
    C2              1.92;
    C3              0;
    sigmak          1;
    sigmaEps        1.3;
}

Creating thermophysical transport model

Selecting thermophysical transport type RAS
Selecting default RAS thermophysical transport model unityLewisEddyDiffusivity

Reading g

Reading hRef
Calculating field g.h


Reading pRef
Reading field p_rgh

No MRF models present

Creating fvModels from "constant/fvModels"

Selecting finite volume model type radiation
    Name: radiation
Selecting radiationModel P1
Selecting absorptionEmissionModel constant
Selecting scatterModel none
Selecting soot model none
--> FOAM Warning : Creating fvConstraints from "system/fvOptions"

Selecting finite volume constraint type limitTemperature
    Name: limitTemperature
    - selecting all cells
    - selected 172378 cell(s) with volume 38.8836

Starting time loop

Time = 1

DILUPBiCGStab:  Solving for Ux, Initial residual = 1, Final residual = 0.00204638, No Iterations 1
DILUPBiCGStab:  Solving for Uy, Initial residual = 1, Final residual = 0.00371513, No Iterations 1
DILUPBiCGStab:  Solving for Uz, Initial residual = 1, Final residual = 0.00196887, No Iterations 1
DICPCG:  Solving for G, Initial residual = 1, Final residual = 0.0854757, No Iterations 31
DILUPBiCGStab:  Solving for h, Initial residual = 1, Final residual = 0.00490881, No Iterations 1
DICPCG:  Solving for p_rgh, Initial residual = 0.676008, Final residual = 0.00566164, No Iterations 66
time step continuity errors : sum local = 0.0196618, global = 2.27378e-05, cumulative = 2.27378e-05
ExecutionTime = 0.22 s  ClockTime = 0 s

Time = 2

DILUPBiCGStab:  Solving for Ux, Initial residual = 0.38172, Final residual = 0.000921392, No Iterations 1
DILUPBiCGStab:  Solving for Uy, Initial residual = 0.305182, Final residual = 0.000871901, No Iterations 1
DILUPBiCGStab:  Solving for Uz, Initial residual = 0.244874, Final residual = 0.000590577, No Iterations 1
DICPCG:  Solving for G, Initial residual = 0.671765, Final residual = 0.0669986, No Iterations 20
DILUPBiCGStab:  Solving for h, Initial residual = 0.052536, Final residual = 0.000317739, No Iterations 1
DICPCG:  Solving for p_rgh, Initial residual = 0.807183, Final residual = 0.00779031, No Iterations 64
time step continuity errors : sum local = 0.00861805, global = 4.35164e-05, cumulative = 6.62542e-05
ExecutionTime = 0.35 s  ClockTime = 0 s

Time = 3

DILUPBiCGStab:  Solving for Ux, Initial residual = 0.330253, Final residual = 0.000838987, No Iterations 1
DILUPBiCGStab:  Solving for Uy, Initial residual = 0.276079, Final residual = 0.000843255, No Iterations 1
DILUPBiCGStab:  Solving for Uz, Initial residual = 0.926376, Final residual = 0.0018213, No Iterations 1
DICPCG:  Solving for G, Initial residual = 0.241122, Final residual = 0.0230345, No Iterations 16
DILUPBiCGStab:  Solving for h, Initial residual = 0.0365105, Final residual = 0.000234444, No Iterations 1
DICPCG:  Solving for p_rgh, Initial residual = 0.796768, Final residual = 0.00589431, No Iterations 72
time step continuity errors : sum local = 0.00606786, global = -8.39585e-06, cumulative = 5.78584e-05
ExecutionTime = 0.49 s  ClockTime = 0 s

Time = 4

DILUPBiCGStab:  Solving for Ux, Initial residual = 0.281714, Final residual = 0.000704978, No Iterations 1
DILUPBiCGStab:  Solving for Uy, Initial residual = 0.260549, Final residual = 0.000780304, No Iterations 1
DILUPBiCGStab:  Solving for Uz, Initial residual = 0.169651, Final residual = 0.000424086, No Iterations 1
DICPCG:  Solving for G, Initial residual = 0.0425952, Final residual = 0.00346058, No Iterations 20
DILUPBiCGStab:  Solving for h, Initial residual = 0.0299886, Final residual = 0.000204228, No Iterations 1
DICPCG:  Solving for p_rgh, Initial residual = 0.652406, Final residual = 0.00646536, No Iterations 67
time step continuity errors : sum local = 0.00461868, global = 2.24019e-06, cumulative = 6.00986e-05
ExecutionTime = 0.62 s  ClockTime = 0 s

Time = 5

DILUPBiCGStab:  Solving for Ux, Initial residual = 0.237837, Final residual = 0.000594621, No Iterations 1
DILUPBiCGStab:  Solving for Uy, Initial residual = 0.241702, Final residual = 0.000910954, No Iterations 1
DILUPBiCGStab:  Solving for Uz, Initial residual = 0.804532, Final residual = 0.00219781, No Iterations 1
DICPCG:  Solving for G, Initial residual = 0.00799332, Final residual = 0.000738534, No Iterations 13
DILUPBiCGStab:  Solving for h, Initial residual = 0.0252892, Final residual = 0.000178504, No Iterations 1
DICPCG:  Solving for p_rgh, Initial residual = 0.678214, Final residual = 0.00627407, No Iterations 68
time step continuity errors : sum local = 0.00247667, global = 4.53927e-07, cumulative = 6.05525e-05
ExecutionTime = 0.77 s  ClockTime = 0 s

Time = 6

DILUPBiCGStab:  Solving for Ux, Initial residual = 0.225108, Final residual = 0.000540053, No Iterations 1
DILUPBiCGStab:  Solving for Uy, Initial residual = 0.236796, Final residual = 0.000824872, No Iterations 1
DILUPBiCGStab:  Solving for Uz, Initial residual = 0.310519, Final residual = 0.000788113, No Iterations 1
DICPCG:  Solving for G, Initial residual = 0.00285013, Final residual = 0.000278172, No Iterations 25
DILUPBiCGStab:  Solving for h, Initial residual = 0.0218283, Final residual = 0.000158885, No Iterations 1
DICPCG:  Solving for p_rgh, Initial residual = 0.644148, Final residual = 0.00629732, No Iterations 67
time step continuity errors : sum local = 0.00162059, global = -3.98239e-06, cumulative = 5.65701e-05
ExecutionTime = 0.9 s  ClockTime = 1 s

Time = 7

DILUPBiCGStab:  Solving for Ux, Initial residual = 0.141308, Final residual = 0.000366494, No Iterations 1
DILUPBiCGStab:  Solving for Uy, Initial residual = 0.153154, Final residual = 0.00056003, No Iterations 1
DILUPBiCGStab:  Solving for Uz, Initial residual = 0.506936, Final residual = 0.00117374, No Iterations 1
DICPCG:  Solving for G, Initial residual = 0.00198672, Final residual = 0.000183148, No Iterations 23
DILUPBiCGStab:  Solving for h, Initial residual = 0.0191035, Final residual = 0.000142549, No Iterations 1
DICPCG:  Solving for p_rgh, Initial residual = 0.551105, Final residual = 0.00524343, No Iterations 63
time step continuity errors : sum local = 0.000824594, global = 1.96913e-06, cumulative = 5.85392e-05
ExecutionTime = 1.04 s  ClockTime = 1 s

Time = 8

DILUPBiCGStab:  Solving for Ux, Initial residual = 0.0837127, Final residual = 0.000203981, No Iterations 1
DILUPBiCGStab:  Solving for Uy, Initial residual = 0.105479, Final residual = 0.000327769, No Iterations 1
DILUPBiCGStab:  Solving for Uz, Initial residual = 0.254676, Final residual = 0.000583615, No Iterations 1
DICPCG:  Solving for G, Initial residual = 0.00159934, Final residual = 0.000145182, No Iterations 23
DILUPBiCGStab:  Solving for h, Initial residual = 0.0168404, Final residual = 0.000128165, No Iterations 1
DICPCG:  Solving for p_rgh, Initial residual = 0.488045, Final residual = 0.00377861, No Iterations 67
time step continuity errors : sum local = 0.000426695, global = 4.43739e-08, cumulative = 5.85836e-05
ExecutionTime = 1.17 s  ClockTime = 1 s

Time = 9

DILUPBiCGStab:  Solving for Ux, Initial residual = 0.0688113, Final residual = 0.000186615, No Iterations 1
DILUPBiCGStab:  Solving for Uy, Initial residual = 0.0829548, Final residual = 0.000280936, No Iterations 1
DILUPBiCGStab:  Solving for Uz, Initial residual = 0.190828, Final residual = 0.000481788, No Iterations 1
DICPCG:  Solving for G, Initial residual = 0.00133777, Final residual = 0.000128462, No Iterations 23
DILUPBiCGStab:  Solving for h, Initial residual = 0.014969, Final residual = 0.000116111, No Iterations 1
DICPCG:  Solving for p_rgh, Initial residual = 0.324548, Final residual = 0.00268595, No Iterations 58
time step continuity errors : sum local = 0.000232497, global = -4.08124e-07, cumulative = 5.81755e-05
ExecutionTime = 1.3 s  ClockTime = 1 s

Time = 10

DILUPBiCGStab:  Solving for Ux, Initial residual = 0.0439947, Final residual = 9.40217e-05, No Iterations 1
DILUPBiCGStab:  Solving for Uy, Initial residual = 0.0632893, Final residual = 0.000166607, No Iterations 1
DILUPBiCGStab:  Solving for Uz, Initial residual = 0.135768, Final residual = 0.00036011, No Iterations 1
DICPCG:  Solving for G, Initial residual = 0.00118299, Final residual = 0.000111681, No Iterations 23
DILUPBiCGStab:  Solving for h, Initial residual = 0.0134409, Final residual = 0.000106188, No Iterations 1
DICPCG:  Solving for p_rgh, Initial residual = 0.257822, Final residual = 0.00202672, No Iterations 66
time step continuity errors : sum local = 0.000149493, global = 2.22484e-07, cumulative = 5.83979e-05
ExecutionTime = 1.44 s  ClockTime = 1 s

Time = 11

DILUPBiCGStab:  Solving for Ux, Initial residual = 0.0403254, Final residual = 9.01946e-05, No Iterations 1
DILUPBiCGStab:  Solving for Uy, Initial residual = 0.0568395, Final residual = 0.000152705, No Iterations 1
DILUPBiCGStab:  Solving for Uz, Initial residual = 0.0581176, Final residual = 0.000151513, No Iterations 1
DICPCG:  Solving for G, Initial residual = 0.00105713, Final residual = 9.92391e-05, No Iterations 23
DILUPBiCGStab:  Solving for h, Initial residual = 0.0121663, Final residual = 9.7585e-05, No Iterations 1
DICPCG:  Solving for p_rgh, Initial residual = 0.158384, Final residual = 0.00145112, No Iterations 22
time step continuity errors : sum local = 9.25465e-05, global = 1.9275e-05, cumulative = 7.7673e-05
ExecutionTime = 1.56 s  ClockTime = 1 s

Time = 12

DILUPBiCGStab:  Solving for Ux, Initial residual = 0.0284778, Final residual = 6.0096e-05, No Iterations 1
DILUPBiCGStab:  Solving for Uy, Initial residual = 0.0437943, Final residual = 0.000119649, No Iterations 1
DILUPBiCGStab:  Solving for Uz, Initial residual = 0.0587594, Final residual = 0.000161906, No Iterations 1
DICPCG:  Solving for G, Initial residual = 0.000951247, Final residual = 9.36686e-05, No Iterations 22
DILUPBiCGStab:  Solving for h, Initial residual = 0.0111114, Final residual = 9.0115e-05, No Iterations 1
DICPCG:  Solving for p_rgh, Initial residual = 0.12127, Final residual = 0.00117257, No Iterations 64
time step continuity errors : sum local = 6.88489e-05, global = -1.16192e-07, cumulative = 7.75568e-05
ExecutionTime = 1.69 s  ClockTime = 1 s

Time = 13

DILUPBiCGStab:  Solving for Ux, Initial residual = 0.0252058, Final residual = 5.78201e-05, No Iterations 1
DILUPBiCGStab:  Solving for Uy, Initial residual = 0.0405088, Final residual = 0.000112582, No Iterations 1
DILUPBiCGStab:  Solving for Uz, Initial residual = 0.0321338, Final residual = 8.14446e-05, No Iterations 1
DICPCG:  Solving for G, Initial residual = 0.000864137, Final residual = 8.30955e-05, No Iterations 22
DILUPBiCGStab:  Solving for h, Initial residual = 0.0102046, Final residual = 8.36512e-05, No Iterations 1
DICPCG:  Solving for p_rgh, Initial residual = 0.0845042, Final residual = 0.000831806, No Iterations 62
time step continuity errors : sum local = 4.64239e-05, global = 5.10142e-08, cumulative = 7.76078e-05
ExecutionTime = 1.83 s  ClockTime = 1 s

Time = 14

DILUPBiCGStab:  Solving for Ux, Initial residual = 0.0217051, Final residual = 4.8974e-05, No Iterations 1
DILUPBiCGStab:  Solving for Uy, Initial residual = 0.0359048, Final residual = 0.000100052, No Iterations 1
DILUPBiCGStab:  Solving for Uz, Initial residual = 0.0334078, Final residual = 9.0824e-05, No Iterations 1
DICPCG:  Solving for G, Initial residual = 0.000787678, Final residual = 6.98928e-05, No Iterations 22
DILUPBiCGStab:  Solving for h, Initial residual = 0.00941821, Final residual = 7.80909e-05, No Iterations 1
DICPCG:  Solving for p_rgh, Initial residual = 0.0678706, Final residual = 0.000658985, No Iterations 23
time step continuity errors : sum local = 3.53096e-05, global = -9.25731e-06, cumulative = 6.83505e-05
ExecutionTime = 1.94 s  ClockTime = 2 s

Time = 15

DILUPBiCGStab:  Solving for Ux, Initial residual = 0.0200472, Final residual = 4.50502e-05, No Iterations 1
DILUPBiCGStab:  Solving for Uy, Initial residual = 0.0335403, Final residual = 9.25711e-05, No Iterations 1
DILUPBiCGStab:  Solving for Uz, Initial residual = 0.0243953, Final residual = 6.24312e-05, No Iterations 1
DICPCG:  Solving for G, Initial residual = 0.00072267, Final residual = 5.94289e-05, No Iterations 22
DILUPBiCGStab:  Solving for h, Initial residual = 0.00873066, Final residual = 7.32082e-05, No Iterations 1
DICPCG:  Solving for p_rgh, Initial residual = 0.0553603, Final residual = 0.000474291, No Iterations 20
time step continuity errors : sum local = 2.4475e-05, global = 1.38544e-06, cumulative = 6.97359e-05
ExecutionTime = 2.05 s  ClockTime = 2 s

Time = 16

DILUPBiCGStab:  Solving for Ux, Initial residual = 0.0182949, Final residual = 4.14607e-05, No Iterations 1
DILUPBiCGStab:  Solving for Uy, Initial residual = 0.0311894, Final residual = 8.73087e-05, No Iterations 1
DILUPBiCGStab:  Solving for Uz, Initial residual = 0.0229052, Final residual = 5.82506e-05, No Iterations 1
DICPCG:  Solving for G, Initial residual = 0.000666703, Final residual = 6.42333e-05, No Iterations 21
DILUPBiCGStab:  Solving for h, Initial residual = 0.00812651, Final residual = 6.89605e-05, No Iterations 1
DICPCG:  Solving for p_rgh, Initial residual = 0.0498375, Final residual = 0.000473634, No Iterations 53
time step continuity errors : sum local = 2.35517e-05, global = 1.18775e-07, cumulative = 6.98547e-05
ExecutionTime = 2.17 s  ClockTime = 2 s

Time = 17

DILUPBiCGStab:  Solving for Ux, Initial residual = 0.0168114, Final residual = 3.83656e-05, No Iterations 1
DILUPBiCGStab:  Solving for Uy, Initial residual = 0.0294033, Final residual = 8.25088e-05, No Iterations 1
DILUPBiCGStab:  Solving for Uz, Initial residual = 0.0214937, Final residual = 5.49493e-05, No Iterations 1
DICPCG:  Solving for G, Initial residual = 0.000623919, Final residual = 5.92247e-05, No Iterations 21
DILUPBiCGStab:  Solving for h, Initial residual = 0.0075978, Final residual = 6.52634e-05, No Iterations 1
DICPCG:  Solving for p_rgh, Initial residual = 0.0457893, Final residual = 0.000379598, No Iterations 59
time step continuity errors : sum local = 1.8299e-05, global = 1.44662e-08, cumulative = 6.98692e-05
ExecutionTime = 2.3 s  ClockTime = 2 s

Time = 18

DILUPBiCGStab:  Solving for Ux, Initial residual = 0.0156735, Final residual = 3.61209e-05, No Iterations 1
DILUPBiCGStab:  Solving for Uy, Initial residual = 0.0278827, Final residual = 7.80335e-05, No Iterations 1
DILUPBiCGStab:  Solving for Uz, Initial residual = 0.0207318, Final residual = 5.26848e-05, No Iterations 1
DICPCG:  Solving for G, Initial residual = 0.000581487, Final residual = 5.16775e-05, No Iterations 21
DILUPBiCGStab:  Solving for h, Initial residual = 0.00713606, Final residual = 6.20941e-05, No Iterations 1
DICPCG:  Solving for p_rgh, Initial residual = 0.042443, Final residual = 0.000417363, No Iterations 57
time step continuity errors : sum local = 1.95396e-05, global = 7.5037e-08, cumulative = 6.99442e-05
ExecutionTime = 2.42 s  ClockTime = 2 s

Time = 19

DILUPBiCGStab:  Solving for Ux, Initial residual = 0.0147273, Final residual = 3.41706e-05, No Iterations 1
DILUPBiCGStab:  Solving for Uy, Initial residual = 0.0265818, Final residual = 7.40304e-05, No Iterations 1
DILUPBiCGStab:  Solving for Uz, Initial residual = 0.0194459, Final residual = 4.88269e-05, No Iterations 1
DICPCG:  Solving for G, Initial residual = 0.000565377, Final residual = 5.60622e-05, No Iterations 21
DILUPBiCGStab:  Solving for h, Initial residual = 0.00672455, Final residual = 5.92583e-05, No Iterations 1
DICPCG:  Solving for p_rgh, Initial residual = 0.0395657, Final residual = 0.000393952, No Iterations 54
time step continuity errors : sum local = 1.78684e-05, global = 6.84736e-08, cumulative = 7.00127e-05
ExecutionTime = 2.55 s  ClockTime = 2 s

Time = 20

DILUPBiCGStab:  Solving for Ux, Initial residual = 0.0138785, Final residual = 3.24569e-05, No Iterations 1
DILUPBiCGStab:  Solving for Uy, Initial residual = 0.0254679, Final residual = 7.07911e-05, No Iterations 1
DILUPBiCGStab:  Solving for Uz, Initial residual = 0.01842, Final residual = 4.56583e-05, No Iterations 1
DICPCG:  Solving for G, Initial residual = 0.0005158, Final residual = 4.64803e-05, No Iterations 21
DILUPBiCGStab:  Solving for h, Initial residual = 0.00635652, Final residual = 5.67666e-05, No Iterations 1
DICPCG:  Solving for p_rgh, Initial residual = 0.0370443, Final residual = 0.000370232, No Iterations 50
time step continuity errors : sum local = 1.63264e-05, global = -3.71783e-08, cumulative = 6.99755e-05
ExecutionTime = 2.67 s  ClockTime = 2 s

Time = 21

DILUPBiCGStab:  Solving for Ux, Initial residual = 0.0131406, Final residual = 3.09408e-05, No Iterations 1
DILUPBiCGStab:  Solving for Uy, Initial residual = 0.0244597, Final residual = 6.75213e-05, No Iterations 1
DILUPBiCGStab:  Solving for Uz, Initial residual = 0.0175561, Final residual = 4.20293e-05, No Iterations 1
DICPCG:  Solving for G, Initial residual = 0.000498836, Final residual = 4.13872e-05, No Iterations 22
DILUPBiCGStab:  Solving for h, Initial residual = 0.00602907, Final residual = 5.46188e-05, No Iterations 1
DICPCG:  Solving for p_rgh, Initial residual = 0.0348007, Final residual = 0.000313598, No Iterations 44
time step continuity errors : sum local = 1.34345e-05, global = -5.47987e-08, cumulative = 6.99207e-05
ExecutionTime = 2.79 s  ClockTime = 2 s

Time = 22

DILUPBiCGStab:  Solving for Ux, Initial residual = 0.0124825, Final residual = 2.98591e-05, No Iterations 1
DILUPBiCGStab:  Solving for Uy, Initial residual = 0.0235092, Final residual = 6.48389e-05, No Iterations 1
DILUPBiCGStab:  Solving for Uz, Initial residual = 0.0168407, Final residual = 3.90264e-05, No Iterations 1
DICPCG:  Solving for G, Initial residual = 0.000472831, Final residual = 4.30167e-05, No Iterations 21
DILUPBiCGStab:  Solving for h, Initial residual = 0.00573888, Final residual = 5.26484e-05, No Iterations 1
DICPCG:  Solving for p_rgh, Initial residual = 0.0327147, Final residual = 0.000274567, No Iterations 48
time step continuity errors : sum local = 1.14875e-05, global = -2.10167e-08, cumulative = 6.98997e-05
ExecutionTime = 2.93 s  ClockTime = 3 s

Time = 23

DILUPBiCGStab:  Solving for Ux, Initial residual = 0.0118932, Final residual = 2.88074e-05, No Iterations 1
DILUPBiCGStab:  Solving for Uy, Initial residual = 0.0227346, Final residual = 6.22827e-05, No Iterations 1
DILUPBiCGStab:  Solving for Uz, Initial residual = 0.0161548, Final residual = 3.63062e-05, No Iterations 1
DICPCG:  Solving for G, Initial residual = 0.000443967, Final residual = 3.54153e-05, No Iterations 22
DILUPBiCGStab:  Solving for h, Initial residual = 0.00549533, Final residual = 5.08302e-05, No Iterations 1
DICPCG:  Solving for p_rgh, Initial residual = 0.0306183, Final residual = 0.000301806, No Iterations 46
time step continuity errors : sum local = 1.23402e-05, global = 1.27396e-07, cumulative = 7.00271e-05
ExecutionTime = 3.07 s  ClockTime = 3 s

Time = 24

DILUPBiCGStab:  Solving for Ux, Initial residual = 0.0113663, Final residual = 2.82564e-05, No Iterations 1
DILUPBiCGStab:  Solving for Uy, Initial residual = 0.0220423, Final residual = 6.04367e-05, No Iterations 1
DILUPBiCGStab:  Solving for Uz, Initial residual = 0.0155062, Final residual = 3.3699e-05, No Iterations 1
DICPCG:  Solving for G, Initial residual = 0.00040931, Final residual = 3.8014e-05, No Iterations 22
DILUPBiCGStab:  Solving for h, Initial residual = 0.00528203, Final residual = 4.91268e-05, No Iterations 1
DICPCG:  Solving for p_rgh, Initial residual = 0.0286117, Final residual = 0.000272808, No Iterations 18
time step continuity errors : sum local = 1.09035e-05, global = -4.11195e-08, cumulative = 6.9986e-05
ExecutionTime = 3.18 s  ClockTime = 3 s

Time = 25

DILUPBiCGStab:  Solving for Ux, Initial residual = 0.0108949, Final residual = 2.77782e-05, No Iterations 1
DILUPBiCGStab:  Solving for Uy, Initial residual = 0.0214018, Final residual = 5.88642e-05, No Iterations 1
DILUPBiCGStab:  Solving for Uz, Initial residual = 0.0148946, Final residual = 3.19968e-05, No Iterations 1
DICPCG:  Solving for G, Initial residual = 0.000392172, Final residual = 3.46753e-05, No Iterations 23
DILUPBiCGStab:  Solving for h, Initial residual = 0.0050893, Final residual = 4.75487e-05, No Iterations 1
DICPCG:  Solving for p_rgh, Initial residual = 0.0267904, Final residual = 0.000248859, No Iterations 23
time step continuity errors : sum local = 9.73409e-06, global = -2.01161e-06, cumulative = 6.79744e-05
ExecutionTime = 3.31 s  ClockTime = 3 s

Time = 26

DILUPBiCGStab:  Solving for Ux, Initial residual = 0.0104953, Final residual = 2.73656e-05, No Iterations 1
DILUPBiCGStab:  Solving for Uy, Initial residual = 0.0207336, Final residual = 5.70594e-05, No Iterations 1
DILUPBiCGStab:  Solving for Uz, Initial residual = 0.0143759, Final residual = 3.15169e-05, No Iterations 1
DICPCG:  Solving for G, Initial residual = 0.000376436, Final residual = 3.35334e-05, No Iterations 23
DILUPBiCGStab:  Solving for h, Initial residual = 0.00491436, Final residual = 4.60956e-05, No Iterations 1
DICPCG:  Solving for p_rgh, Initial residual = 0.0252249, Final residual = 0.000238593, No Iterations 50
time step continuity errors : sum local = 9.15041e-06, global = -5.11716e-08, cumulative = 6.79232e-05
ExecutionTime = 3.45 s  ClockTime = 3 s

Time = 27

DILUPBiCGStab:  Solving for Ux, Initial residual = 0.0101085, Final residual = 2.68197e-05, No Iterations 1
DILUPBiCGStab:  Solving for Uy, Initial residual = 0.0201688, Final residual = 5.5423e-05, No Iterations 1
DILUPBiCGStab:  Solving for Uz, Initial residual = 0.013897, Final residual = 3.14419e-05, No Iterations 1
DICPCG:  Solving for G, Initial residual = 0.000361235, Final residual = 3.53905e-05, No Iterations 23
DILUPBiCGStab:  Solving for h, Initial residual = 0.00475402, Final residual = 4.47535e-05, No Iterations 1
DICPCG:  Solving for p_rgh, Initial residual = 0.0237716, Final residual = 0.000207882, No Iterations 14
time step continuity errors : sum local = 7.8237e-06, global = 1.67695e-07, cumulative = 6.80909e-05
ExecutionTime = 3.56 s  ClockTime = 3 s

Time = 28

DILUPBiCGStab:  Solving for Ux, Initial residual = 0.00977774, Final residual = 2.6299e-05, No Iterations 1
DILUPBiCGStab:  Solving for Uy, Initial residual = 0.0196825, Final residual = 5.36837e-05, No Iterations 1
DILUPBiCGStab:  Solving for Uz, Initial residual = 0.0134845, Final residual = 3.13829e-05, No Iterations 1
DICPCG:  Solving for G, Initial residual = 0.000348669, Final residual = 3.47615e-05, No Iterations 23
DILUPBiCGStab:  Solving for h, Initial residual = 0.00460651, Final residual = 4.35134e-05, No Iterations 1
DICPCG:  Solving for p_rgh, Initial residual = 0.02247, Final residual = 0.00021465, No Iterations 24
time step continuity errors : sum local = 7.94528e-06, global = 1.65021e-06, cumulative = 6.97411e-05
ExecutionTime = 3.69 s  ClockTime = 3 s

Time = 29

DILUPBiCGStab:  Solving for Ux, Initial residual = 0.00952009, Final residual = 2.61059e-05, No Iterations 1
DILUPBiCGStab:  Solving for Uy, Initial residual = 0.0192579, Final residual = 5.22262e-05, No Iterations 1
DILUPBiCGStab:  Solving for Uz, Initial residual = 0.0131054, Final residual = 3.13097e-05, No Iterations 1
DICPCG:  Solving for G, Initial residual = 0.000336186, Final residual = 2.99101e-05, No Iterations 25
DILUPBiCGStab:  Solving for h, Initial residual = 0.00447062, Final residual = 4.23696e-05, No Iterations 1
DICPCG:  Solving for p_rgh, Initial residual = 0.0212887, Final residual = 0.000200612, No Iterations 52
time step continuity errors : sum local = 7.31352e-06, global = 1.06583e-07, cumulative = 6.98477e-05
ExecutionTime = 3.82 s  ClockTime = 3 s

Time = 30

DILUPBiCGStab:  Solving for Ux, Initial residual = 0.00928461, Final residual = 2.58371e-05, No Iterations 1
DILUPBiCGStab:  Solving for Uy, Initial residual = 0.0188468, Final residual = 5.02788e-05, No Iterations 1
DILUPBiCGStab:  Solving for Uz, Initial residual = 0.0127813, Final residual = 3.12367e-05, No Iterations 1
DICPCG:  Solving for G, Initial residual = 0.000323047, Final residual = 3.20761e-05, No Iterations 24
DILUPBiCGStab:  Solving for h, Initial residual = 0.00434514, Final residual = 4.13155e-05, No Iterations 1
DICPCG:  Solving for p_rgh, Initial residual = 0.0202423, Final residual = 0.000175845, No Iterations 16
time step continuity errors : sum local = 6.32529e-06, global = -5.03431e-07, cumulative = 6.93442e-05
ExecutionTime = 3.95 s  ClockTime = 4 s

Time = 31

DILUPBiCGStab:  Solving for Ux, Initial residual = 0.00904823, Final residual = 2.5054e-05, No Iterations 1
DILUPBiCGStab:  Solving for Uy, Initial residual = 0.0184451, Final residual = 4.82532e-05, No Iterations 1
DILUPBiCGStab:  Solving for Uz, Initial residual = 0.0124633, Final residual = 3.10264e-05, No Iterations 1
DICPCG:  Solving for G, Initial residual = 0.000324661, Final residual = 3.1621e-05, No Iterations 24
DILUPBiCGStab:  Solving for h, Initial residual = 0.00422857, Final residual = 4.03427e-05, No Iterations 1
DICPCG:  Solving for p_rgh, Initial residual = 0.0192413, Final residual = 0.000178769, No Iterations 22
time step continuity errors : sum local = 6.35813e-06, global = -8.49651e-07, cumulative = 6.84946e-05
ExecutionTime = 4.08 s  ClockTime = 4 s

Time = 32

DILUPBiCGStab:  Solving for Ux, Initial residual = 0.0088522, Final residual = 2.50387e-05, No Iterations 1
DILUPBiCGStab:  Solving for Uy, Initial residual = 0.0180803, Final residual = 4.6746e-05, No Iterations 1
DILUPBiCGStab:  Solving for Uz, Initial residual = 0.012177, Final residual = 2.8012e-05, No Iterations 1
DICPCG:  Solving for G, Initial residual = 0.000304254, Final residual = 2.89156e-05, No Iterations 25
DILUPBiCGStab:  Solving for h, Initial residual = 0.00411981, Final residual = 3.94385e-05, No Iterations 1
DICPCG:  Solving for p_rgh, Initial residual = 0.0182739, Final residual = 0.000161861, No Iterations 23
time step continuity errors : sum local = 5.68921e-06, global = -2.50554e-07, cumulative = 6.8244e-05
ExecutionTime = 4.22 s  ClockTime = 4 s

Time = 33

DILUPBiCGStab:  Solving for Ux, Initial residual = 0.0086576, Final residual = 2.48506e-05, No Iterations 1
DILUPBiCGStab:  Solving for Uy, Initial residual = 0.0177129, Final residual = 4.52076e-05, No Iterations 1
DILUPBiCGStab:  Solving for Uz, Initial residual = 0.0118839, Final residual = 3.01069e-05, No Iterations 1
DICPCG:  Solving for G, Initial residual = 0.000294591, Final residual = 2.84521e-05, No Iterations 25
DILUPBiCGStab:  Solving for h, Initial residual = 0.00401815, Final residual = 3.85958e-05, No Iterations 1
DICPCG:  Solving for p_rgh, Initial residual = 0.0173616, Final residual = 0.000162078, No Iterations 23
time step continuity errors : sum local = 5.6359e-06, global = 4.43377e-09, cumulative = 6.82485e-05
ExecutionTime = 4.34 s  ClockTime = 4 s

Time = 34

DILUPBiCGStab:  Solving for Ux, Initial residual = 0.00848976, Final residual = 2.46243e-05, No Iterations 1
DILUPBiCGStab:  Solving for Uy, Initial residual = 0.0173779, Final residual = 4.3649e-05, No Iterations 1
DILUPBiCGStab:  Solving for Uz, Initial residual = 0.0116208, Final residual = 3.00535e-05, No Iterations 1
DICPCG:  Solving for G, Initial residual = 0.000286237, Final residual = 2.7962e-05, No Iterations 25
DILUPBiCGStab:  Solving for h, Initial residual = 0.00392307, Final residual = 3.78057e-05, No Iterations 1
DICPCG:  Solving for p_rgh, Initial residual = 0.0165259, Final residual = 0.000157617, No Iterations 23
time step continuity errors : sum local = 5.42721e-06, global = 1.67314e-07, cumulative = 6.84158e-05
ExecutionTime = 4.46 s  ClockTime = 4 s

Time = 35

DILUPBiCGStab:  Solving for Ux, Initial residual = 0.0083452, Final residual = 2.44269e-05, No Iterations 1
DILUPBiCGStab:  Solving for Uy, Initial residual = 0.0170545, Final residual = 4.21576e-05, No Iterations 1
DILUPBiCGStab:  Solving for Uz, Initial residual = 0.0113729, Final residual = 2.96633e-05, No Iterations 1
DICPCG:  Solving for G, Initial residual = 0.000278723, Final residual = 2.49261e-05, No Iterations 26
DILUPBiCGStab:  Solving for h, Initial residual = 0.00383388, Final residual = 3.70637e-05, No Iterations 1
DICPCG:  Solving for p_rgh, Initial residual = 0.0157532, Final residual = 0.00014194, No Iterations 24
time step continuity errors : sum local = 4.84364e-06, global = 4.10579e-07, cumulative = 6.88264e-05
ExecutionTime = 4.59 s  ClockTime = 4 s

Time = 36

DILUPBiCGStab:  Solving for Ux, Initial residual = 0.00821337, Final residual = 2.42629e-05, No Iterations 1
DILUPBiCGStab:  Solving for Uy, Initial residual = 0.0167293, Final residual = 4.07722e-05, No Iterations 1
DILUPBiCGStab:  Solving for Uz, Initial residual = 0.0111424, Final residual = 2.92477e-05, No Iterations 1
DICPCG:  Solving for G, Initial residual = 0.00027104, Final residual = 2.43002e-05, No Iterations 26
DILUPBiCGStab:  Solving for h, Initial residual = 0.00374991, Final residual = 3.63732e-05, No Iterations 1
DICPCG:  Solving for p_rgh, Initial residual = 0.0150487, Final residual = 0.000137826, No Iterations 25
time step continuity errors : sum local = 4.66434e-06, global = 7.66857e-07, cumulative = 6.95932e-05
ExecutionTime = 4.73 s  ClockTime = 4 s

Time = 37

DILUPBiCGStab:  Solving for Ux, Initial residual = 0.00809174, Final residual = 2.41138e-05, No Iterations 1
DILUPBiCGStab:  Solving for Uy, Initial residual = 0.0164133, Final residual = 3.9464e-05, No Iterations 1
DILUPBiCGStab:  Solving for Uz, Initial residual = 0.0109259, Final residual = 2.88291e-05, No Iterations 1
DICPCG:  Solving for G, Initial residual = 0.000264257, Final residual = 2.44431e-05, No Iterations 26
DILUPBiCGStab:  Solving for h, Initial residual = 0.00367072, Final residual = 3.57299e-05, No Iterations 1
DICPCG:  Solving for p_rgh, Initial residual = 0.0143977, Final residual = 0.000138378, No Iterations 27
time step continuity errors : sum local = 4.64677e-06, global = 1.22467e-06, cumulative = 7.08179e-05
ExecutionTime = 4.86 s  ClockTime = 5 s

Time = 38

DILUPBiCGStab:  Solving for Ux, Initial residual = 0.00798514, Final residual = 2.39874e-05, No Iterations 1
DILUPBiCGStab:  Solving for Uy, Initial residual = 0.0161004, Final residual = 3.8176e-05, No Iterations 1
DILUPBiCGStab:  Solving for Uz, Initial residual = 0.0107196, Final residual = 2.84189e-05, No Iterations 1
DICPCG:  Solving for G, Initial residual = 0.000258183, Final residual = 2.39285e-05, No Iterations 26
DILUPBiCGStab:  Solving for h, Initial residual = 0.00359586, Final residual = 3.51253e-05, No Iterations 1
DICPCG:  Solving for p_rgh, Initial residual = 0.0138001, Final residual = 0.000120404, No Iterations 52
time step continuity errors : sum local = 4.01405e-06, global = 5.98476e-08, cumulative = 7.08777e-05
ExecutionTime = 4.99 s  ClockTime = 5 s

Time = 39

DILUPBiCGStab:  Solving for Ux, Initial residual = 0.00789701, Final residual = 2.39318e-05, No Iterations 1
DILUPBiCGStab:  Solving for Uy, Initial residual = 0.0158158, Final residual = 3.71074e-05, No Iterations 1
DILUPBiCGStab:  Solving for Uz, Initial residual = 0.0105323, Final residual = 2.79633e-05, No Iterations 1
DICPCG:  Solving for G, Initial residual = 0.000252371, Final residual = 2.4049e-05, No Iterations 26
DILUPBiCGStab:  Solving for h, Initial residual = 0.00352496, Final residual = 3.45523e-05, No Iterations 1
DICPCG:  Solving for p_rgh, Initial residual = 0.0132545, Final residual = 0.000131285, No Iterations 22
time step continuity errors : sum local = 4.34849e-06, global = -3.485e-07, cumulative = 7.05292e-05
ExecutionTime = 5.12 s  ClockTime = 5 s

Time = 40

DILUPBiCGStab:  Solving for Ux, Initial residual = 0.00780304, Final residual = 2.37698e-05, No Iterations 1
DILUPBiCGStab:  Solving for Uy, Initial residual = 0.0155112, Final residual = 3.59724e-05, No Iterations 1
DILUPBiCGStab:  Solving for Uz, Initial residual = 0.0103349, Final residual = 2.75729e-05, No Iterations 1
DICPCG:  Solving for G, Initial residual = 0.000247138, Final residual = 2.3242e-05, No Iterations 26
DILUPBiCGStab:  Solving for h, Initial residual = 0.00345767, Final residual = 3.40101e-05, No Iterations 1
DICPCG:  Solving for p_rgh, Initial residual = 0.0127309, Final residual = 0.00012411, No Iterations 26
time step continuity errors : sum local = 4.08434e-06, global = -6.98118e-07, cumulative = 6.98311e-05
ExecutionTime = 5.26 s  ClockTime = 5 s

Time = 41

DILUPBiCGStab:  Solving for Ux, Initial residual = 0.00772715, Final residual = 2.37237e-05, No Iterations 1
DILUPBiCGStab:  Solving for Uy, Initial residual = 0.0151827, Final residual = 3.47344e-05, No Iterations 1
DILUPBiCGStab:  Solving for Uz, Initial residual = 0.0101577, Final residual = 2.72421e-05, No Iterations 1
DICPCG:  Solving for G, Initial residual = 0.000241931, Final residual = 2.41019e-05, No Iterations 26
DILUPBiCGStab:  Solving for h, Initial residual = 0.00339367, Final residual = 3.34975e-05, No Iterations 1
DICPCG:  Solving for p_rgh, Initial residual = 0.0122241, Final residual = 0.000117746, No Iterations 26
time step continuity errors : sum local = 3.85151e-06, global = -7.09628e-07, cumulative = 6.91215e-05
ExecutionTime = 5.39 s  ClockTime = 5 s

Time = 42

DILUPBiCGStab:  Solving for Ux, Initial residual = 0.00765557, Final residual = 2.36676e-05, No Iterations 1
DILUPBiCGStab:  Solving for Uy, Initial residual = 0.014899, Final residual = 3.37974e-05, No Iterations 1
DILUPBiCGStab:  Solving for Uz, Initial residual = 0.00998747, Final residual = 2.68662e-05, No Iterations 1
DICPCG:  Solving for G, Initial residual = 0.000237768, Final residual = 2.16755e-05, No Iterations 27
DILUPBiCGStab:  Solving for h, Initial residual = 0.00333288, Final residual = 3.30105e-05, No Iterations 1
DICPCG:  Solving for p_rgh, Initial residual = 0.0117584, Final residual = 0.000110691, No Iterations 25
time step continuity errors : sum local = 3.60016e-06, global = -4.53437e-07, cumulative = 6.86681e-05
ExecutionTime = 5.52 s  ClockTime = 5 s

Time = 43

DILUPBiCGStab:  Solving for Ux, Initial residual = 0.00758776, Final residual = 2.35846e-05, No Iterations 1
DILUPBiCGStab:  Solving for Uy, Initial residual = 0.0146182, Final residual = 3.28903e-05, No Iterations 1
DILUPBiCGStab:  Solving for Uz, Initial residual = 0.00982278, Final residual = 2.65047e-05, No Iterations 1
DICPCG:  Solving for G, Initial residual = 0.000232347, Final residual = 2.11438e-05, No Iterations 27
DILUPBiCGStab:  Solving for h, Initial residual = 0.00327537, Final residual = 3.25477e-05, No Iterations 1
DICPCG:  Solving for p_rgh, Initial residual = 0.0113293, Final residual = 0.000105616, No Iterations 26
time step continuity errors : sum local = 3.41664e-06, global = 7.20057e-08, cumulative = 6.87401e-05
ExecutionTime = 5.66 s  ClockTime = 5 s

Time = 44

DILUPBiCGStab:  Solving for Ux, Initial residual = 0.00753489, Final residual = 2.35505e-05, No Iterations 1
DILUPBiCGStab:  Solving for Uy, Initial residual = 0.0143189, Final residual = 3.18837e-05, No Iterations 1
DILUPBiCGStab:  Solving for Uz, Initial residual = 0.00966681, Final residual = 2.61769e-05, No Iterations 1
DICPCG:  Solving for G, Initial residual = 0.000228183, Final residual = 2.11371e-05, No Iterations 27
DILUPBiCGStab:  Solving for h, Initial residual = 0.00322106, Final residual = 3.21084e-05, No Iterations 1
DICPCG:  Solving for p_rgh, Initial residual = 0.0109338, Final residual = 0.000106979, No Iterations 27
time step continuity errors : sum local = 3.44323e-06, global = 7.63548e-07, cumulative = 6.95036e-05
ExecutionTime = 5.79 s  ClockTime = 5 s

Time = 45

DILUPBiCGStab:  Solving for Ux, Initial residual = 0.00749162, Final residual = 2.35559e-05, No Iterations 1
DILUPBiCGStab:  Solving for Uy, Initial residual = 0.0140301, Final residual = 3.09773e-05, No Iterations 1
DILUPBiCGStab:  Solving for Uz, Initial residual = 0.00951879, Final residual = 2.58546e-05, No Iterations 1
DICPCG:  Solving for G, Initial residual = 0.000224323, Final residual = 2.09708e-05, No Iterations 27
DILUPBiCGStab:  Solving for h, Initial residual = 0.00316957, Final residual = 3.16888e-05, No Iterations 1
DICPCG:  Solving for p_rgh, Initial residual = 0.0105742, Final residual = 0.000102344, No Iterations 53
time step continuity errors : sum local = 3.2784e-06, global = 4.95985e-08, cumulative = 6.95532e-05
ExecutionTime = 5.92 s  ClockTime = 6 s

Time = 46

DILUPBiCGStab:  Solving for Ux, Initial residual = 0.00746438, Final residual = 2.36336e-05, No Iterations 1
DILUPBiCGStab:  Solving for Uy, Initial residual = 0.0137648, Final residual = 3.02049e-05, No Iterations 1
DILUPBiCGStab:  Solving for Uz, Initial residual = 0.00938328, Final residual = 2.54948e-05, No Iterations 1
DICPCG:  Solving for G, Initial residual = 0.000220743, Final residual = 2.1124e-05, No Iterations 27
DILUPBiCGStab:  Solving for h, Initial residual = 0.0031205, Final residual = 1.27108e-06, No Iterations 1
DICPCG:  Solving for p_rgh, Initial residual = 0.010214, Final residual = 9.54501e-05, No Iterations 25
time step continuity errors : sum local = 3.04466e-06, global = -3.06694e-09, cumulative = 6.95501e-05
ExecutionTime = 6.05 s  ClockTime = 6 s

Time = 47

DILUPBiCGStab:  Solving for Ux, Initial residual = 0.00741789, Final residual = 2.35568e-05, No Iterations 1
DILUPBiCGStab:  Solving for Uy, Initial residual = 0.0134833, Final residual = 2.93373e-05, No Iterations 1
DILUPBiCGStab:  Solving for Uz, Initial residual = 0.0092412, Final residual = 2.52154e-05, No Iterations 1
DICPCG:  Solving for G, Initial residual = 0.000217484, Final residual = 2.09257e-05, No Iterations 27
DILUPBiCGStab:  Solving for h, Initial residual = 0.00307387, Final residual = 1.25365e-06, No Iterations 1
DICPCG:  Solving for p_rgh, Initial residual = 0.00986732, Final residual = 8.91766e-05, No Iterations 27
time step continuity errors : sum local = 2.83213e-06, global = -8.21074e-08, cumulative = 6.9468e-05
ExecutionTime = 6.17 s  ClockTime = 6 s

Time = 48

DILUPBiCGStab:  Solving for Ux, Initial residual = 0.00739631, Final residual = 2.36014e-05, No Iterations 1
DILUPBiCGStab:  Solving for Uy, Initial residual = 0.0132139, Final residual = 2.85534e-05, No Iterations 1
DILUPBiCGStab:  Solving for Uz, Initial residual = 0.00911016, Final residual = 2.49574e-05, No Iterations 1
DICPCG:  Solving for G, Initial residual = 0.000214461, Final residual = 2.09376e-05, No Iterations 27
DILUPBiCGStab:  Solving for h, Initial residual = 0.0030295, Final residual = 1.23721e-06, No Iterations 1
DICPCG:  Solving for p_rgh, Initial residual = 0.00956267, Final residual = 8.57426e-05, No Iterations 27
time step continuity errors : sum local = 2.71189e-06, global = 1.03061e-07, cumulative = 6.95711e-05
ExecutionTime = 6.29 s  ClockTime = 6 s

Time = 49

DILUPBiCGStab:  Solving for Ux, Initial residual = 0.00737464, Final residual = 2.36436e-05, No Iterations 1
DILUPBiCGStab:  Solving for Uy, Initial residual = 0.012962, Final residual = 2.78976e-05, No Iterations 1
DILUPBiCGStab:  Solving for Uz, Initial residual = 0.00898514, Final residual = 2.46825e-05, No Iterations 1
DICPCG:  Solving for G, Initial residual = 0.000211357, Final residual = 2.06317e-05, No Iterations 27
DILUPBiCGStab:  Solving for h, Initial residual = 0.00298724, Final residual = 1.22144e-06, No Iterations 1
DICPCG:  Solving for p_rgh, Initial residual = 0.00927519, Final residual = 8.12456e-05, No Iterations 28
time step continuity errors : sum local = 2.55973e-06, global = 4.97558e-07, cumulative = 7.00687e-05
ExecutionTime = 6.42 s  ClockTime = 6 s

Time = 50

DILUPBiCGStab:  Solving for Ux, Initial residual = 0.00735422, Final residual = 2.36694e-05, No Iterations 1
DILUPBiCGStab:  Solving for Uy, Initial residual = 0.0127089, Final residual = 2.72075e-05, No Iterations 1
DILUPBiCGStab:  Solving for Uz, Initial residual = 0.00886364, Final residual = 2.44163e-05, No Iterations 1
DICPCG:  Solving for G, Initial residual = 0.000208417, Final residual = 2.07075e-05, No Iterations 27
DILUPBiCGStab:  Solving for h, Initial residual = 0.00294697, Final residual = 1.20636e-06, No Iterations 1
DICPCG:  Solving for p_rgh, Initial residual = 0.0090035, Final residual = 8.15634e-05, No Iterations 56
time step continuity errors : sum local = 2.56037e-06, global = 4.39795e-08, cumulative = 7.01126e-05
ExecutionTime = 6.57 s  ClockTime = 6 s

Time = 51

DILUPBiCGStab:  Solving for Ux, Initial residual = 0.00734959, Final residual = 2.37696e-05, No Iterations 1
DILUPBiCGStab:  Solving for Uy, Initial residual = 0.0124672, Final residual = 2.65642e-05, No Iterations 1
DILUPBiCGStab:  Solving for Uz, Initial residual = 0.00874839, Final residual = 2.41265e-05, No Iterations 1
DICPCG:  Solving for G, Initial residual = 0.000205641, Final residual = 2.03485e-05, No Iterations 27
DILUPBiCGStab:  Solving for h, Initial residual = 0.00290839, Final residual = 1.19178e-06, No Iterations 1
DICPCG:  Solving for p_rgh, Initial residual = 0.00875992, Final residual = 7.79027e-05, No Iterations 27
time step continuity errors : sum local = 2.43753e-06, global = 8.79838e-08, cumulative = 7.02006e-05
ExecutionTime = 6.69 s  ClockTime = 6 s

Time = 52

DILUPBiCGStab:  Solving for Ux, Initial residual = 0.00733361, Final residual = 2.37686e-05, No Iterations 1
DILUPBiCGStab:  Solving for Uy, Initial residual = 0.0122116, Final residual = 2.58948e-05, No Iterations 1
DILUPBiCGStab:  Solving for Uz, Initial residual = 0.00863436, Final residual = 2.39022e-05, No Iterations 1
DICPCG:  Solving for G, Initial residual = 0.000202944, Final residual = 1.79301e-05, No Iterations 28
DILUPBiCGStab:  Solving for h, Initial residual = 0.00287141, Final residual = 1.17773e-06, No Iterations 1
DICPCG:  Solving for p_rgh, Initial residual = 0.008531, Final residual = 7.43679e-05, No Iterations 28
time step continuity errors : sum local = 2.31916e-06, global = 1.71249e-07, cumulative = 7.03719e-05
ExecutionTime = 6.82 s  ClockTime = 7 s

Time = 53

DILUPBiCGStab:  Solving for Ux, Initial residual = 0.00733317, Final residual = 2.38571e-05, No Iterations 1
DILUPBiCGStab:  Solving for Uy, Initial residual = 0.0119763, Final residual = 2.53114e-05, No Iterations 1
DILUPBiCGStab:  Solving for Uz, Initial residual = 0.00852534, Final residual = 2.36577e-05, No Iterations 1
DICPCG:  Solving for G, Initial residual = 0.000199817, Final residual = 1.76127e-05, No Iterations 28
DILUPBiCGStab:  Solving for h, Initial residual = 0.00283583, Final residual = 1.16414e-06, No Iterations 1
DICPCG:  Solving for p_rgh, Initial residual = 0.00830068, Final residual = 8.03737e-05, No Iterations 28
time step continuity errors : sum local = 2.49851e-06, global = 4.6694e-07, cumulative = 7.08388e-05
ExecutionTime = 6.94 s  ClockTime = 7 s

Time = 54

DILUPBiCGStab:  Solving for Ux, Initial residual = 0.00733364, Final residual = 2.39314e-05, No Iterations 1
DILUPBiCGStab:  Solving for Uy, Initial residual = 0.0117499, Final residual = 2.47576e-05, No Iterations 1
DILUPBiCGStab:  Solving for Uz, Initial residual = 0.00842012, Final residual = 2.3412e-05, No Iterations 1
DICPCG:  Solving for G, Initial residual = 0.000197397, Final residual = 1.76487e-05, No Iterations 28
DILUPBiCGStab:  Solving for h, Initial residual = 0.00280153, Final residual = 1.15098e-06, No Iterations 1
DICPCG:  Solving for p_rgh, Initial residual = 0.00807944, Final residual = 7.78488e-05, No Iterations 56
time step continuity errors : sum local = 2.41276e-06, global = 4.25882e-08, cumulative = 7.08814e-05
ExecutionTime = 7.07 s  ClockTime = 7 s

Time = 55

DILUPBiCGStab:  Solving for Ux, Initial residual = 0.00734363, Final residual = 2.40432e-05, No Iterations 1
DILUPBiCGStab:  Solving for Uy, Initial residual = 0.0115355, Final residual = 2.42226e-05, No Iterations 1
DILUPBiCGStab:  Solving for Uz, Initial residual = 0.00831826, Final residual = 2.31513e-05, No Iterations 1
DICPCG:  Solving for G, Initial residual = 0.000195087, Final residual = 1.74094e-05, No Iterations 28
DILUPBiCGStab:  Solving for h, Initial residual = 0.00276863, Final residual = 1.13829e-06, No Iterations 1
DICPCG:  Solving for p_rgh, Initial residual = 0.00788372, Final residual = 7.74696e-05, No Iterations 27
time step continuity errors : sum local = 2.3946e-06, global = 8.00883e-08, cumulative = 7.09615e-05
ExecutionTime = 7.2 s  ClockTime = 7 s

Time = 56

DILUPBiCGStab:  Solving for Ux, Initial residual = 0.00734061, Final residual = 2.40421e-05, No Iterations 1
DILUPBiCGStab:  Solving for Uy, Initial residual = 0.0113031, Final residual = 2.36511e-05, No Iterations 1
DILUPBiCGStab:  Solving for Uz, Initial residual = 0.0082169, Final residual = 2.29545e-05, No Iterations 1
DICPCG:  Solving for G, Initial residual = 0.000192913, Final residual = 1.72948e-05, No Iterations 28
DILUPBiCGStab:  Solving for h, Initial residual = 0.00273711, Final residual = 1.12602e-06, No Iterations 1
DICPCG:  Solving for p_rgh, Initial residual = 0.00769808, Final residual = 7.52281e-05, No Iterations 28
time step continuity errors : sum local = 2.31879e-06, global = 1.82526e-07, cumulative = 7.1144e-05
ExecutionTime = 7.32 s  ClockTime = 7 s

Time = 57

DILUPBiCGStab:  Solving for Ux, Initial residual = 0.00735472, Final residual = 2.41411e-05, No Iterations 1
DILUPBiCGStab:  Solving for Uy, Initial residual = 0.0110901, Final residual = 2.31573e-05, No Iterations 1
DILUPBiCGStab:  Solving for Uz, Initial residual = 0.00812024, Final residual = 2.2729e-05, No Iterations 1
DICPCG:  Solving for G, Initial residual = 0.000190792, Final residual = 1.70788e-05, No Iterations 28
DILUPBiCGStab:  Solving for h, Initial residual = 0.00270693, Final residual = 1.11418e-06, No Iterations 1
DICPCG:  Solving for p_rgh, Initial residual = 0.00750497, Final residual = 7.03762e-05, No Iterations 29
time step continuity errors : sum local = 2.16335e-06, global = 4.88395e-07, cumulative = 7.16324e-05
ExecutionTime = 7.44 s  ClockTime = 7 s

Time = 58

DILUPBiCGStab:  Solving for Ux, Initial residual = 0.00736887, Final residual = 2.42264e-05, No Iterations 1
DILUPBiCGStab:  Solving for Uy, Initial residual = 0.0108867, Final residual = 2.26928e-05, No Iterations 1
DILUPBiCGStab:  Solving for Uz, Initial residual = 0.00802688, Final residual = 2.24987e-05, No Iterations 1
DICPCG:  Solving for G, Initial residual = 0.000188834, Final residual = 1.69626e-05, No Iterations 28
DILUPBiCGStab:  Solving for h, Initial residual = 0.00267795, Final residual = 1.10254e-06, No Iterations 1
DICPCG:  Solving for p_rgh, Initial residual = 0.00731558, Final residual = 6.65669e-05, No Iterations 57
time step continuity errors : sum local = 2.04088e-06, global = 3.07421e-08, cumulative = 7.16632e-05
ExecutionTime = 7.57 s  ClockTime = 7 s

Time = 59

DILUPBiCGStab:  Solving for Ux, Initial residual = 0.00738925, Final residual = 2.43377e-05, No Iterations 1
DILUPBiCGStab:  Solving for Uy, Initial residual = 0.0106948, Final residual = 2.22413e-05, No Iterations 1
DILUPBiCGStab:  Solving for Uz, Initial residual = 0.00793377, Final residual = 2.22523e-05, No Iterations 1
DICPCG:  Solving for G, Initial residual = 0.000186935, Final residual = 1.67538e-05, No Iterations 28
DILUPBiCGStab:  Solving for h, Initial residual = 0.00264999, Final residual = 1.09122e-06, No Iterations 1
DICPCG:  Solving for p_rgh, Initial residual = 0.00716368, Final residual = 6.83658e-05, No Iterations 28
time step continuity errors : sum local = 2.09114e-06, global = 5.91104e-08, cumulative = 7.17223e-05
ExecutionTime = 7.69 s  ClockTime = 7 s

Time = 60

DILUPBiCGStab:  Solving for Ux, Initial residual = 0.00739816, Final residual = 2.43508e-05, No Iterations 1
DILUPBiCGStab:  Solving for Uy, Initial residual = 0.0104859, Final residual = 2.17548e-05, No Iterations 1
DILUPBiCGStab:  Solving for Uz, Initial residual = 0.00784231, Final residual = 2.20676e-05, No Iterations 1
DICPCG:  Solving for G, Initial residual = 0.000185156, Final residual = 1.66692e-05, No Iterations 28
DILUPBiCGStab:  Solving for h, Initial residual = 0.00262306, Final residual = 1.08031e-06, No Iterations 1
DICPCG:  Solving for p_rgh, Initial residual = 0.00700314, Final residual = 6.1848e-05, No Iterations 29
time step continuity errors : sum local = 1.88704e-06, global = 1.2852e-07, cumulative = 7.18508e-05
ExecutionTime = 7.82 s  ClockTime = 8 s

Time = 61

DILUPBiCGStab:  Solving for Ux, Initial residual = 0.0074224, Final residual = 2.44497e-05, No Iterations 1
DILUPBiCGStab:  Solving for Uy, Initial residual = 0.0102958, Final residual = 2.13494e-05, No Iterations 1
DILUPBiCGStab:  Solving for Uz, Initial residual = 0.00775432, Final residual = 2.18592e-05, No Iterations 1
DICPCG:  Solving for G, Initial residual = 0.000183443, Final residual = 1.65218e-05, No Iterations 28
DILUPBiCGStab:  Solving for h, Initial residual = 0.00259707, Final residual = 1.0696e-06, No Iterations 1
DICPCG:  Solving for p_rgh, Initial residual = 0.00683541, Final residual = 6.38918e-05, No Iterations 30
time step continuity errors : sum local = 1.9447e-06, global = 4.13764e-07, cumulative = 7.22645e-05
ExecutionTime = 7.94 s  ClockTime = 8 s

Time = 62

DILUPBiCGStab:  Solving for Ux, Initial residual = 0.00744684, Final residual = 2.45406e-05, No Iterations 1
DILUPBiCGStab:  Solving for Uy, Initial residual = 0.010114, Final residual = 2.09529e-05, No Iterations 1
DILUPBiCGStab:  Solving for Uz, Initial residual = 0.00766863, Final residual = 2.1642e-05, No Iterations 1
DICPCG:  Solving for G, Initial residual = 0.000181809, Final residual = 1.64347e-05, No Iterations 28
DILUPBiCGStab:  Solving for h, Initial residual = 0.00257203, Final residual = 1.05913e-06, No Iterations 1
DICPCG:  Solving for p_rgh, Initial residual = 0.00667836, Final residual = 6.38027e-05, No Iterations 57
time step continuity errors : sum local = 1.93749e-06, global = 3.01222e-08, cumulative = 7.22947e-05
ExecutionTime = 8.09 s  ClockTime = 8 s

Time = 63

DILUPBiCGStab:  Solving for Ux, Initial residual = 0.00747541, Final residual = 2.4658e-05, No Iterations 1
DILUPBiCGStab:  Solving for Uy, Initial residual = 0.00994208, Final residual = 2.05665e-05, No Iterations 1
DILUPBiCGStab:  Solving for Uz, Initial residual = 0.00758139, Final residual = 2.14104e-05, No Iterations 1
DICPCG:  Solving for G, Initial residual = 0.000180255, Final residual = 1.63383e-05, No Iterations 28
DILUPBiCGStab:  Solving for h, Initial residual = 0.00254796, Final residual = 1.04887e-06, No Iterations 1
DICPCG:  Solving for p_rgh, Initial residual = 0.00655025, Final residual = 6.08479e-05, No Iterations 29
time step continuity errors : sum local = 1.84395e-06, global = 9.62336e-08, cumulative = 7.23909e-05
ExecutionTime = 8.22 s  ClockTime = 8 s

Time = 64

DILUPBiCGStab:  Solving for Ux, Initial residual = 0.00749236, Final residual = 2.46734e-05, No Iterations 1
DILUPBiCGStab:  Solving for Uy, Initial residual = 0.00975659, Final residual = 2.01505e-05, No Iterations 1
DILUPBiCGStab:  Solving for Uz, Initial residual = 0.00749761, Final residual = 2.12367e-05, No Iterations 1
DICPCG:  Solving for G, Initial residual = 0.000178779, Final residual = 1.62519e-05, No Iterations 28
DILUPBiCGStab:  Solving for h, Initial residual = 0.00252474, Final residual = 1.03901e-06, No Iterations 1
DICPCG:  Solving for p_rgh, Initial residual = 0.00640673, Final residual = 5.89255e-05, No Iterations 30
time step continuity errors : sum local = 1.7817e-06, global = 2.11294e-07, cumulative = 7.26022e-05
ExecutionTime = 8.35 s  ClockTime = 8 s

Time = 65

DILUPBiCGStab:  Solving for Ux, Initial residual = 0.00752376, Final residual = 2.47717e-05, No Iterations 1
DILUPBiCGStab:  Solving for Uy, Initial residual = 0.00958846, Final residual = 1.9809e-05, No Iterations 1
DILUPBiCGStab:  Solving for Uz, Initial residual = 0.00741709, Final residual = 2.10344e-05, No Iterations 1
DICPCG:  Solving for G, Initial residual = 0.000177371, Final residual = 1.61841e-05, No Iterations 28
DILUPBiCGStab:  Solving for h, Initial residual = 0.00250234, Final residual = 1.02938e-06, No Iterations 1
DICPCG:  Solving for p_rgh, Initial residual = 0.0062631, Final residual = 5.64154e-05, No Iterations 34
time step continuity errors : sum local = 1.70208e-06, global = 5.24719e-07, cumulative = 7.31269e-05
ExecutionTime = 8.49 s  ClockTime = 8 s

Time = 66

DILUPBiCGStab:  Solving for Ux, Initial residual = 0.00755717, Final residual = 2.48773e-05, No Iterations 1
DILUPBiCGStab:  Solving for Uy, Initial residual = 0.00943139, Final residual = 1.94853e-05, No Iterations 1
DILUPBiCGStab:  Solving for Uz, Initial residual = 0.00733871, Final residual = 2.08231e-05, No Iterations 1
DICPCG:  Solving for G, Initial residual = 0.000176026, Final residual = 1.60991e-05, No Iterations 28
DILUPBiCGStab:  Solving for h, Initial residual = 0.00248072, Final residual = 1.02001e-06, No Iterations 1
DICPCG:  Solving for p_rgh, Initial residual = 0.00612373, Final residual = 4.91641e-05, No Iterations 58
time step continuity errors : sum local = 1.48017e-06, global = 2.19765e-08, cumulative = 7.31489e-05
ExecutionTime = 8.61 s  ClockTime = 8 s

Time = 67

DILUPBiCGStab:  Solving for Ux, Initial residual = 0.00758815, Final residual = 2.49658e-05, No Iterations 1
DILUPBiCGStab:  Solving for Uy, Initial residual = 0.0092722, Final residual = 1.91303e-05, No Iterations 1
DILUPBiCGStab:  Solving for Uz, Initial residual = 0.0072556, Final residual = 2.06219e-05, No Iterations 1
DICPCG:  Solving for G, Initial residual = 0.000174741, Final residual = 1.60477e-05, No Iterations 28
DILUPBiCGStab:  Solving for h, Initial residual = 0.00245981, Final residual = 2.45874e-05, No Iterations 1
DICPCG:  Solving for p_rgh, Initial residual = 0.00607866, Final residual = 5.74524e-05, No Iterations 30
time step continuity errors : sum local = 1.72656e-06, global = 3.81434e-08, cumulative = 7.3187e-05
ExecutionTime = 8.75 s  ClockTime = 8 s

Time = 68

DILUPBiCGStab:  Solving for Ux, Initial residual = 0.00761006, Final residual = 2.49699e-05, No Iterations 1
DILUPBiCGStab:  Solving for Uy, Initial residual = 0.00910995, Final residual = 1.87839e-05, No Iterations 1
DILUPBiCGStab:  Solving for Uz, Initial residual = 0.00717919, Final residual = 2.04554e-05, No Iterations 1
DICPCG:  Solving for G, Initial residual = 0.000173298, Final residual = 1.59121e-05, No Iterations 28
DILUPBiCGStab:  Solving for h, Initial residual = 0.00243952, Final residual = 1.00375e-06, No Iterations 1
DICPCG:  Solving for p_rgh, Initial residual = 0.0059171, Final residual = 5.66421e-05, No Iterations 30
time step continuity errors : sum local = 1.69874e-06, global = 7.69164e-08, cumulative = 7.3264e-05
ExecutionTime = 8.89 s  ClockTime = 9 s

Time = 69

DILUPBiCGStab:  Solving for Ux, Initial residual = 0.00764629, Final residual = 2.50778e-05, No Iterations 1
DILUPBiCGStab:  Solving for Uy, Initial residual = 0.00895946, Final residual = 1.84802e-05, No Iterations 1
DILUPBiCGStab:  Solving for Uz, Initial residual = 0.00710475, Final residual = 2.02405e-05, No Iterations 1
DICPCG:  Solving for G, Initial residual = 0.000172224, Final residual = 1.59368e-05, No Iterations 28
DILUPBiCGStab:  Solving for h, Initial residual = 0.00241989, Final residual = 9.94754e-07, No Iterations 1
DICPCG:  Solving for p_rgh, Initial residual = 0.00578105, Final residual = 5.67692e-05, No Iterations 31
time step continuity errors : sum local = 1.69913e-06, global = 3.41983e-07, cumulative = 7.36059e-05
ExecutionTime = 9.02 s  ClockTime = 9 s

Time = 70

DILUPBiCGStab:  Solving for Ux, Initial residual = 0.00768237, Final residual = 2.51581e-05, No Iterations 1
DILUPBiCGStab:  Solving for Uy, Initial residual = 0.00881692, Final residual = 1.81975e-05, No Iterations 1
DILUPBiCGStab:  Solving for Uz, Initial residual = 0.00703094, Final residual = 2.00511e-05, No Iterations 1
DICPCG:  Solving for G, Initial residual = 0.000171264, Final residual = 1.58519e-05, No Iterations 28
DILUPBiCGStab:  Solving for h, Initial residual = 0.00240086, Final residual = 2.39984e-05, No Iterations 1
DICPCG:  Solving for p_rgh, Initial residual = 0.00571459, Final residual = 4.54401e-05, No Iterations 58
time step continuity errors : sum local = 1.35745e-06, global = 2.10489e-08, cumulative = 7.3627e-05
ExecutionTime = 9.17 s  ClockTime = 9 s

Time = 71

DILUPBiCGStab:  Solving for Ux, Initial residual = 0.00771781, Final residual = 2.52351e-05, No Iterations 1
DILUPBiCGStab:  Solving for Uy, Initial residual = 0.00868382, Final residual = 1.7915e-05, No Iterations 1
DILUPBiCGStab:  Solving for Uz, Initial residual = 0.00695494, Final residual = 1.98577e-05, No Iterations 1
DICPCG:  Solving for G, Initial residual = 0.000169982, Final residual = 1.57643e-05, No Iterations 28
DILUPBiCGStab:  Solving for h, Initial residual = 0.00238235, Final residual = 9.7913e-07, No Iterations 1
DICPCG:  Solving for p_rgh, Initial residual = 0.00559085, Final residual = 5.31181e-05, No Iterations 31
time step continuity errors : sum local = 1.58412e-06, global = 1.29372e-07, cumulative = 7.37564e-05
ExecutionTime = 9.3 s  ClockTime = 9 s

Time = 72

DILUPBiCGStab:  Solving for Ux, Initial residual = 0.00774188, Final residual = 2.52581e-05, No Iterations 1
DILUPBiCGStab:  Solving for Uy, Initial residual = 0.00853596, Final residual = 1.75996e-05, No Iterations 1
DILUPBiCGStab:  Solving for Uz, Initial residual = 0.0068837, Final residual = 1.96838e-05, No Iterations 1
DICPCG:  Solving for G, Initial residual = 0.000169065, Final residual = 1.57576e-05, No Iterations 28
DILUPBiCGStab:  Solving for h, Initial residual = 0.00236438, Final residual = 9.70537e-07, No Iterations 1
DICPCG:  Solving for p_rgh, Initial residual = 0.0054869, Final residual = 5.1799e-05, No Iterations 32
time step continuity errors : sum local = 1.54191e-06, global = 2.74076e-07, cumulative = 7.40304e-05
ExecutionTime = 9.44 s  ClockTime = 9 s

Time = 73

DILUPBiCGStab:  Solving for Ux, Initial residual = 0.00778021, Final residual = 2.5333e-05, No Iterations 1
DILUPBiCGStab:  Solving for Uy, Initial residual = 0.00840314, Final residual = 1.73481e-05, No Iterations 1
DILUPBiCGStab:  Solving for Uz, Initial residual = 0.00681346, Final residual = 1.9508e-05, No Iterations 1
DICPCG:  Solving for G, Initial residual = 0.000168248, Final residual = 1.57277e-05, No Iterations 28
DILUPBiCGStab:  Solving for h, Initial residual = 0.00234686, Final residual = 2.34437e-05, No Iterations 1
DICPCG:  Solving for p_rgh, Initial residual = 0.00542813, Final residual = 5.05947e-05, No Iterations 57
time step continuity errors : sum local = 1.50341e-06, global = 2.01741e-08, cumulative = 7.40506e-05
ExecutionTime = 9.59 s  ClockTime = 9 s

Time = 74

DILUPBiCGStab:  Solving for Ux, Initial residual = 0.00782069, Final residual = 2.54199e-05, No Iterations 1
DILUPBiCGStab:  Solving for Uy, Initial residual = 0.00828208, Final residual = 1.71067e-05, No Iterations 1
DILUPBiCGStab:  Solving for Uz, Initial residual = 0.00674179, Final residual = 1.93207e-05, No Iterations 1
DICPCG:  Solving for G, Initial residual = 0.000167111, Final residual = 1.56057e-05, No Iterations 28
DILUPBiCGStab:  Solving for h, Initial residual = 0.00232974, Final residual = 9.55741e-07, No Iterations 1
DICPCG:  Solving for p_rgh, Initial residual = 0.00531806, Final residual = 4.97139e-05, No Iterations 32
time step continuity errors : sum local = 1.47491e-06, global = 1.47353e-07, cumulative = 7.4198e-05
ExecutionTime = 9.73 s  ClockTime = 9 s

Time = 75

DILUPBiCGStab:  Solving for Ux, Initial residual = 0.00784395, Final residual = 2.54305e-05, No Iterations 1
DILUPBiCGStab:  Solving for Uy, Initial residual = 0.00814942, Final residual = 1.68353e-05, No Iterations 1
DILUPBiCGStab:  Solving for Uz, Initial residual = 0.00667387, Final residual = 1.91518e-05, No Iterations 1
DICPCG:  Solving for G, Initial residual = 0.00016635, Final residual = 1.56504e-05, No Iterations 28
DILUPBiCGStab:  Solving for h, Initial residual = 0.00231307, Final residual = 2.31118e-05, No Iterations 1
DICPCG:  Solving for p_rgh, Initial residual = 0.00526599, Final residual = 5.00306e-05, No Iterations 33
time step continuity errors : sum local = 1.48181e-06, global = 3.32315e-07, cumulative = 7.45303e-05
ExecutionTime = 9.88 s  ClockTime = 10 s

Time = 76

DILUPBiCGStab:  Solving for Ux, Initial residual = 0.00788065, Final residual = 2.54768e-05, No Iterations 1
DILUPBiCGStab:  Solving for Uy, Initial residual = 0.00802695, Final residual = 1.6609e-05, No Iterations 1
DILUPBiCGStab:  Solving for Uz, Initial residual = 0.00660677, Final residual = 1.89877e-05, No Iterations 1
DICPCG:  Solving for G, Initial residual = 0.000165421, Final residual = 1.55261e-05, No Iterations 28
DILUPBiCGStab:  Solving for h, Initial residual = 0.0022968, Final residual = 9.41378e-07, No Iterations 1
DICPCG:  Solving for p_rgh, Initial residual = 0.00514776, Final residual = 5.13178e-05, No Iterations 57
time step continuity errors : sum local = 1.51741e-06, global = 1.95992e-08, cumulative = 7.45499e-05
ExecutionTime = 10.03 s  ClockTime = 10 s

Time = 77

DILUPBiCGStab:  Solving for Ux, Initial residual = 0.00792061, Final residual = 2.55891e-05, No Iterations 1
DILUPBiCGStab:  Solving for Uy, Initial residual = 0.00791209, Final residual = 1.63792e-05, No Iterations 1
DILUPBiCGStab:  Solving for Uz, Initial residual = 0.00653888, Final residual = 1.87916e-05, No Iterations 1
DICPCG:  Solving for G, Initial residual = 0.000164752, Final residual = 1.55743e-05, No Iterations 28
DILUPBiCGStab:  Solving for h, Initial residual = 0.00228097, Final residual = 2.27875e-05, No Iterations 1
DICPCG:  Solving for p_rgh, Initial residual = 0.00511091, Final residual = 4.97425e-05, No Iterations 32
time step continuity errors : sum local = 1.46867e-06, global = 1.23144e-07, cumulative = 7.4673e-05
ExecutionTime = 10.16 s  ClockTime = 10 s

Time = 78

DILUPBiCGStab:  Solving for Ux, Initial residual = 0.0079448, Final residual = 2.55599e-05, No Iterations 1
DILUPBiCGStab:  Solving for Uy, Initial residual = 0.0077932, Final residual = 1.61548e-05, No Iterations 1
DILUPBiCGStab:  Solving for Uz, Initial residual = 0.00647403, Final residual = 1.86542e-05, No Iterations 1
DICPCG:  Solving for G, Initial residual = 0.000163885, Final residual = 1.54544e-05, No Iterations 28
DILUPBiCGStab:  Solving for h, Initial residual = 0.0022655, Final residual = 9.27368e-07, No Iterations 1
DICPCG:  Solving for p_rgh, Initial residual = 0.00501201, Final residual = 4.64926e-05, No Iterations 33
time step continuity errors : sum local = 1.37047e-06, global = 2.67859e-07, cumulative = 7.49409e-05
ExecutionTime = 10.3 s  ClockTime = 10 s

Time = 79

DILUPBiCGStab:  Solving for Ux, Initial residual = 0.00798264, Final residual = 2.56366e-05, No Iterations 1
DILUPBiCGStab:  Solving for Uy, Initial residual = 0.00767843, Final residual = 1.59501e-05, No Iterations 1
DILUPBiCGStab:  Solving for Uz, Initial residual = 0.00641066, Final residual = 1.84793e-05, No Iterations 1
DICPCG:  Solving for G, Initial residual = 0.000163295, Final residual = 1.55092e-05, No Iterations 28
DILUPBiCGStab:  Solving for h, Initial residual = 0.00225038, Final residual = 2.24723e-05, No Iterations 1
DICPCG:  Solving for p_rgh, Initial residual = 0.00495983, Final residual = 4.92916e-05, No Iterations 57
time step continuity errors : sum local = 1.4507e-06, global = 1.91734e-08, cumulative = 7.496e-05
ExecutionTime = 10.43 s  ClockTime = 10 s

Time = 80

DILUPBiCGStab:  Solving for Ux, Initial residual = 0.00802105, Final residual = 2.57024e-05, No Iterations 1
DILUPBiCGStab:  Solving for Uy, Initial residual = 0.00757346, Final residual = 1.57538e-05, No Iterations 1
DILUPBiCGStab:  Solving for Uz, Initial residual = 0.00634576, Final residual = 1.83155e-05, No Iterations 1
DICPCG:  Solving for G, Initial residual = 0.000162477, Final residual = 1.53922e-05, No Iterations 28
DILUPBiCGStab:  Solving for h, Initial residual = 0.00223556, Final residual = 2.23547e-05, No Iterations 1
DICPCG:  Solving for p_rgh, Initial residual = 0.00492134, Final residual = 4.32876e-05, No Iterations 33
time step continuity errors : sum local = 1.27229e-06, global = 1.50437e-07, cumulative = 7.51105e-05
ExecutionTime = 10.58 s  ClockTime = 10 s

Time = 81

DILUPBiCGStab:  Solving for Ux, Initial residual = 0.00804481, Final residual = 2.56861e-05, No Iterations 1
DILUPBiCGStab:  Solving for Uy, Initial residual = 0.00746245, Final residual = 1.55465e-05, No Iterations 1
DILUPBiCGStab:  Solving for Uz, Initial residual = 0.006284, Final residual = 1.8163e-05, No Iterations 1
DICPCG:  Solving for G, Initial residual = 0.000161722, Final residual = 1.53957e-05, No Iterations 28
DILUPBiCGStab:  Solving for h, Initial residual = 0.00222105, Final residual = 9.0817e-07, No Iterations 1
DICPCG:  Solving for p_rgh, Initial residual = 0.00482368, Final residual = 4.21724e-05, No Iterations 34
time step continuity errors : sum local = 1.23768e-06, global = 3.35609e-07, cumulative = 7.54461e-05
ExecutionTime = 10.71 s  ClockTime = 10 s

Time = 82

DILUPBiCGStab:  Solving for Ux, Initial residual = 0.00808239, Final residual = 2.57527e-05, No Iterations 1
DILUPBiCGStab:  Solving for Uy, Initial residual = 0.00735615, Final residual = 1.53605e-05, No Iterations 1
DILUPBiCGStab:  Solving for Uz, Initial residual = 0.00622319, Final residual = 1.79933e-05, No Iterations 1
DICPCG:  Solving for G, Initial residual = 0.000161334, Final residual = 1.5391e-05, No Iterations 28
DILUPBiCGStab:  Solving for h, Initial residual = 0.00220685, Final residual = 2.20492e-05, No Iterations 1
DICPCG:  Solving for p_rgh, Initial residual = 0.00476869, Final residual = 3.68687e-05, No Iterations 58
time step continuity errors : sum local = 1.0805e-06, global = 1.33513e-08, cumulative = 7.54594e-05
ExecutionTime = 10.84 s  ClockTime = 11 s

Time = 83

DILUPBiCGStab:  Solving for Ux, Initial residual = 0.00811726, Final residual = 2.57961e-05, No Iterations 1
DILUPBiCGStab:  Solving for Uy, Initial residual = 0.00725986, Final residual = 1.51892e-05, No Iterations 1
DILUPBiCGStab:  Solving for Uz, Initial residual = 0.00616097, Final residual = 1.78423e-05, No Iterations 1
DICPCG:  Solving for G, Initial residual = 0.00016063, Final residual = 1.53344e-05, No Iterations 28
DILUPBiCGStab:  Solving for h, Initial residual = 0.0021929, Final residual = 8.95267e-07, No Iterations 1
DICPCG:  Solving for p_rgh, Initial residual = 0.00471989, Final residual = 4.1643e-05, No Iterations 33
time step continuity errors : sum local = 1.21892e-06, global = 1.15527e-07, cumulative = 7.5575e-05
ExecutionTime = 10.97 s  ClockTime = 11 s

Time = 84

DILUPBiCGStab:  Solving for Ux, Initial residual = 0.00814249, Final residual = 2.57967e-05, No Iterations 1
DILUPBiCGStab:  Solving for Uy, Initial residual = 0.00715704, Final residual = 1.50003e-05, No Iterations 1
DILUPBiCGStab:  Solving for Uz, Initial residual = 0.00610266, Final residual = 1.76939e-05, No Iterations 1
DICPCG:  Solving for G, Initial residual = 0.000160191, Final residual = 1.53493e-05, No Iterations 28
DILUPBiCGStab:  Solving for h, Initial residual = 0.00217923, Final residual = 2.17544e-05, No Iterations 1
DICPCG:  Solving for p_rgh, Initial residual = 0.00467404, Final residual = 4.53182e-05, No Iterations 33
time step continuity errors : sum local = 1.32469e-06, global = 2.52359e-07, cumulative = 7.58273e-05
ExecutionTime = 11.1 s  ClockTime = 11 s

Time = 85

DILUPBiCGStab:  Solving for Ux, Initial residual = 0.00817669, Final residual = 2.58074e-05, No Iterations 1
DILUPBiCGStab:  Solving for Uy, Initial residual = 0.00706033, Final residual = 1.48448e-05, No Iterations 1
DILUPBiCGStab:  Solving for Uz, Initial residual = 0.00604416, Final residual = 1.75538e-05, No Iterations 1
DICPCG:  Solving for G, Initial residual = 0.000159543, Final residual = 1.52957e-05, No Iterations 28
DILUPBiCGStab:  Solving for h, Initial residual = 0.00216583, Final residual = 2.16449e-05, No Iterations 1
DICPCG:  Solving for p_rgh, Initial residual = 0.00463341, Final residual = 3.5203e-05, No Iterations 58
time step continuity errors : sum local = 1.0277e-06, global = 1.29109e-08, cumulative = 7.58402e-05
ExecutionTime = 11.23 s  ClockTime = 11 s

Time = 86

DILUPBiCGStab:  Solving for Ux, Initial residual = 0.00821062, Final residual = 2.58724e-05, No Iterations 1
DILUPBiCGStab:  Solving for Uy, Initial residual = 0.00696932, Final residual = 1.4679e-05, No Iterations 1
DILUPBiCGStab:  Solving for Uz, Initial residual = 0.00598563, Final residual = 1.73809e-05, No Iterations 1
DICPCG:  Solving for G, Initial residual = 0.000158922, Final residual = 1.52642e-05, No Iterations 28
DILUPBiCGStab:  Solving for h, Initial residual = 0.00215266, Final residual = 8.77405e-07, No Iterations 1
DICPCG:  Solving for p_rgh, Initial residual = 0.00457589, Final residual = 4.19894e-05, No Iterations 33
time step continuity errors : sum local = 1.22442e-06, global = 1.50909e-07, cumulative = 7.59912e-05
ExecutionTime = 11.37 s  ClockTime = 11 s

Time = 87

DILUPBiCGStab:  Solving for Ux, Initial residual = 0.00823297, Final residual = 2.58671e-05, No Iterations 1
DILUPBiCGStab:  Solving for Uy, Initial residual = 0.0068737, Final residual = 1.45044e-05, No Iterations 1
DILUPBiCGStab:  Solving for Uz, Initial residual = 0.00592984, Final residual = 1.72352e-05, No Iterations 1
DICPCG:  Solving for G, Initial residual = 0.000158725, Final residual = 1.53338e-05, No Iterations 28
DILUPBiCGStab:  Solving for h, Initial residual = 0.00213971, Final residual = 2.13589e-05, No Iterations 1
DICPCG:  Solving for p_rgh, Initial residual = 0.00452877, Final residual = 4.21958e-05, No Iterations 34
time step continuity errors : sum local = 1.2289e-06, global = 3.41996e-07, cumulative = 7.63331e-05
ExecutionTime = 11.49 s  ClockTime = 11 s

Time = 88

DILUPBiCGStab:  Solving for Ux, Initial residual = 0.00826536, Final residual = 2.5868e-05, No Iterations 1
DILUPBiCGStab:  Solving for Uy, Initial residual = 0.00678519, Final residual = 1.43705e-05, No Iterations 1
DILUPBiCGStab:  Solving for Uz, Initial residual = 0.00587393, Final residual = 1.71033e-05, No Iterations 1
DICPCG:  Solving for G, Initial residual = 0.000158121, Final residual = 1.52303e-05, No Iterations 28
DILUPBiCGStab:  Solving for h, Initial residual = 0.00212697, Final residual = 2.12537e-05, No Iterations 1
DICPCG:  Solving for p_rgh, Initial residual = 0.00449144, Final residual = 3.45843e-05, No Iterations 58
time step continuity errors : sum local = 1.00604e-06, global = 1.14204e-08, cumulative = 7.63446e-05
ExecutionTime = 11.64 s  ClockTime = 11 s

Time = 89

DILUPBiCGStab:  Solving for Ux, Initial residual = 0.00829303, Final residual = 2.59134e-05, No Iterations 1
DILUPBiCGStab:  Solving for Uy, Initial residual = 0.00670072, Final residual = 1.42185e-05, No Iterations 1
DILUPBiCGStab:  Solving for Uz, Initial residual = 0.00581796, Final residual = 1.69446e-05, No Iterations 1
DICPCG:  Solving for G, Initial residual = 0.000157621, Final residual = 1.52646e-05, No Iterations 28
DILUPBiCGStab:  Solving for h, Initial residual = 0.00211446, Final residual = 8.6045e-07, No Iterations 1
DICPCG:  Solving for p_rgh, Initial residual = 0.00445661, Final residual = 4.08381e-05, No Iterations 33
time step continuity errors : sum local = 1.18674e-06, global = 1.09331e-07, cumulative = 7.64539e-05
ExecutionTime = 11.76 s  ClockTime = 11 s

Time = 90

DILUPBiCGStab:  Solving for Ux, Initial residual = 0.00831357, Final residual = 2.59032e-05, No Iterations 1
DILUPBiCGStab:  Solving for Uy, Initial residual = 0.00661191, Final residual = 1.40541e-05, No Iterations 1
DILUPBiCGStab:  Solving for Uz, Initial residual = 0.00576481, Final residual = 1.68044e-05, No Iterations 1
DICPCG:  Solving for G, Initial residual = 0.000157466, Final residual = 1.52702e-05, No Iterations 28
DILUPBiCGStab:  Solving for h, Initial residual = 0.00210215, Final residual = 2.09775e-05, No Iterations 1
DICPCG:  Solving for p_rgh, Initial residual = 0.0044115, Final residual = 3.68143e-05, No Iterations 34
time step continuity errors : sum local = 1.06854e-06, global = 2.40553e-07, cumulative = 7.66945e-05
ExecutionTime = 11.9 s  ClockTime = 12 s

Time = 91

DILUPBiCGStab:  Solving for Ux, Initial residual = 0.0083434, Final residual = 2.58969e-05, No Iterations 1
DILUPBiCGStab:  Solving for Uy, Initial residual = 0.00652983, Final residual = 1.39366e-05, No Iterations 1
DILUPBiCGStab:  Solving for Uz, Initial residual = 0.00571159, Final residual = 1.66802e-05, No Iterations 1
DICPCG:  Solving for G, Initial residual = 0.000156963, Final residual = 1.5245e-05, No Iterations 28
DILUPBiCGStab:  Solving for h, Initial residual = 0.00209003, Final residual = 2.08768e-05, No Iterations 1
DICPCG:  Solving for p_rgh, Initial residual = 0.00437812, Final residual = 3.36813e-05, No Iterations 58
time step continuity errors : sum local = 9.7651e-07, global = 1.19948e-08, cumulative = 7.67064e-05
ExecutionTime = 12.04 s  ClockTime = 12 s

Time = 92

DILUPBiCGStab:  Solving for Ux, Initial residual = 0.00836875, Final residual = 2.59318e-05, No Iterations 1
DILUPBiCGStab:  Solving for Uy, Initial residual = 0.00645071, Final residual = 1.3798e-05, No Iterations 1
DILUPBiCGStab:  Solving for Uz, Initial residual = 0.00565877, Final residual = 1.65302e-05, No Iterations 1
DICPCG:  Solving for G, Initial residual = 0.000156506, Final residual = 1.52031e-05, No Iterations 28
DILUPBiCGStab:  Solving for h, Initial residual = 0.00207811, Final residual = 2.07756e-05, No Iterations 1
DICPCG:  Solving for p_rgh, Initial residual = 0.00435822, Final residual = 4.1666e-05, No Iterations 33
time step continuity errors : sum local = 1.20687e-06, global = 1.54737e-07, cumulative = 7.68612e-05
ExecutionTime = 12.18 s  ClockTime = 12 s

Time = 93

DILUPBiCGStab:  Solving for Ux, Initial residual = 0.00838441, Final residual = 2.58906e-05, No Iterations 1
DILUPBiCGStab:  Solving for Uy, Initial residual = 0.00636846, Final residual = 1.36536e-05, No Iterations 1
DILUPBiCGStab:  Solving for Uz, Initial residual = 0.00560775, Final residual = 1.63997e-05, No Iterations 1
DICPCG:  Solving for G, Initial residual = 0.000156207, Final residual = 1.52538e-05, No Iterations 28
DILUPBiCGStab:  Solving for h, Initial residual = 0.00206638, Final residual = 8.39268e-07, No Iterations 1
DICPCG:  Solving for p_rgh, Initial residual = 0.00431873, Final residual = 4.21819e-05, No Iterations 34
time step continuity errors : sum local = 1.22047e-06, global = 3.51673e-07, cumulative = 7.72129e-05
ExecutionTime = 12.31 s  ClockTime = 12 s

Time = 94

DILUPBiCGStab:  Solving for Ux, Initial residual = 0.00841154, Final residual = 2.59228e-05, No Iterations 1
DILUPBiCGStab:  Solving for Uy, Initial residual = 0.00629044, Final residual = 1.35203e-05, No Iterations 1
DILUPBiCGStab:  Solving for Uz, Initial residual = 0.00555767, Final residual = 1.62597e-05, No Iterations 1
DICPCG:  Solving for G, Initial residual = 0.000156145, Final residual = 1.52161e-05, No Iterations 28
DILUPBiCGStab:  Solving for h, Initial residual = 0.00205483, Final residual = 2.05116e-05, No Iterations 1
DICPCG:  Solving for p_rgh, Initial residual = 0.00426838, Final residual = 3.36286e-05, No Iterations 58
time step continuity errors : sum local = 9.7197e-07, global = 1.08863e-08, cumulative = 7.72237e-05
ExecutionTime = 12.44 s  ClockTime = 12 s

Time = 95

DILUPBiCGStab:  Solving for Ux, Initial residual = 0.00843022, Final residual = 2.59181e-05, No Iterations 1
DILUPBiCGStab:  Solving for Uy, Initial residual = 0.00621971, Final residual = 1.3418e-05, No Iterations 1
DILUPBiCGStab:  Solving for Uz, Initial residual = 0.00550706, Final residual = 1.61406e-05, No Iterations 1
DICPCG:  Solving for G, Initial residual = 0.000155725, Final residual = 1.52558e-05, No Iterations 28
DILUPBiCGStab:  Solving for h, Initial residual = 0.00204346, Final residual = 2.04173e-05, No Iterations 1
DICPCG:  Solving for p_rgh, Initial residual = 0.00426591, Final residual = 4.02476e-05, No Iterations 33
time step continuity errors : sum local = 1.16229e-06, global = 1.02163e-07, cumulative = 7.73259e-05
ExecutionTime = 12.57 s  ClockTime = 12 s

Time = 96

DILUPBiCGStab:  Solving for Ux, Initial residual = 0.00844298, Final residual = 2.5856e-05, No Iterations 1
DILUPBiCGStab:  Solving for Uy, Initial residual = 0.00614264, Final residual = 1.32899e-05, No Iterations 1
DILUPBiCGStab:  Solving for Uz, Initial residual = 0.00545831, Final residual = 1.60198e-05, No Iterations 1
DICPCG:  Solving for G, Initial residual = 0.000155361, Final residual = 1.52887e-05, No Iterations 28
DILUPBiCGStab:  Solving for h, Initial residual = 0.00203226, Final residual = 2.03226e-05, No Iterations 1
DICPCG:  Solving for p_rgh, Initial residual = 0.00423722, Final residual = 3.59101e-05, No Iterations 34
time step continuity errors : sum local = 1.036e-06, global = 2.20976e-07, cumulative = 7.75469e-05
ExecutionTime = 12.71 s  ClockTime = 12 s

Time = 97

DILUPBiCGStab:  Solving for Ux, Initial residual = 0.00846511, Final residual = 2.58525e-05, No Iterations 1
DILUPBiCGStab:  Solving for Uy, Initial residual = 0.00606919, Final residual = 1.31705e-05, No Iterations 1
DILUPBiCGStab:  Solving for Uz, Initial residual = 0.00541033, Final residual = 1.58858e-05, No Iterations 1
DICPCG:  Solving for G, Initial residual = 0.000155128, Final residual = 1.39455e-05, No Iterations 29
DILUPBiCGStab:  Solving for h, Initial residual = 0.00202123, Final residual = 8.19407e-07, No Iterations 1
DICPCG:  Solving for p_rgh, Initial residual = 0.00420468, Final residual = 3.28071e-05, No Iterations 58
[...]
DILUPBiCGStab:  Solving for Uz, Initial residual = 1.34252e-05, Final residual = 4.14344e-07, No Iterations 1
DICPCG:  Solving for G, Initial residual = 9.98225e-05, Final residual = 9.67605e-06, No Iterations 30
DILUPBiCGStab:  Solving for h, Initial residual = 0.000378328, Final residual = 1.83817e-07, No Iterations 1
DICPCG:  Solving for p_rgh, Initial residual = 4.11895e-05, Final residual = 9.86092e-07, No Iterations 61
time step continuity errors : sum local = 4.92249e-08, global = 1.10274e-10, cumulative = 0.000114429
ExecutionTime = 684.84 s  ClockTime = 689 s

Time = 4977

DILUPBiCGStab:  Solving for Ux, Initial residual = 6.21539e-06, Final residual = 2.20693e-07, No Iterations 1
DILUPBiCGStab:  Solving for Uy, Initial residual = 1.64433e-05, Final residual = 5.88639e-07, No Iterations 1
DILUPBiCGStab:  Solving for Uz, Initial residual = 1.34238e-05, Final residual = 4.14318e-07, No Iterations 1
DICPCG:  Solving for G, Initial residual = 9.98316e-05, Final residual = 9.721e-06, No Iterations 30
DILUPBiCGStab:  Solving for h, Initial residual = 0.000378314, Final residual = 1.83812e-07, No Iterations 1
DICPCG:  Solving for p_rgh, Initial residual = 4.11869e-05, Final residual = 9.86134e-07, No Iterations 61
time step continuity errors : sum local = 4.92268e-08, global = 1.10296e-10, cumulative = 0.000114429
ExecutionTime = 684.97 s  ClockTime = 689 s

Time = 4978

DILUPBiCGStab:  Solving for Ux, Initial residual = 6.2157e-06, Final residual = 2.20687e-07, No Iterations 1
DILUPBiCGStab:  Solving for Uy, Initial residual = 1.64428e-05, Final residual = 5.88586e-07, No Iterations 1
DILUPBiCGStab:  Solving for Uz, Initial residual = 1.34224e-05, Final residual = 4.14292e-07, No Iterations 1
DICPCG:  Solving for G, Initial residual = 9.98241e-05, Final residual = 9.34163e-06, No Iterations 30
DILUPBiCGStab:  Solving for h, Initial residual = 0.000378301, Final residual = 1.83806e-07, No Iterations 1
DICPCG:  Solving for p_rgh, Initial residual = 4.11843e-05, Final residual = 9.8616e-07, No Iterations 61
time step continuity errors : sum local = 4.92278e-08, global = 1.10318e-10, cumulative = 0.00011443
ExecutionTime = 685.09 s  ClockTime = 689 s

Time = 4979

DILUPBiCGStab:  Solving for Ux, Initial residual = 6.21601e-06, Final residual = 2.2068e-07, No Iterations 1
DILUPBiCGStab:  Solving for Uy, Initial residual = 1.64423e-05, Final residual = 5.88535e-07, No Iterations 1
DILUPBiCGStab:  Solving for Uz, Initial residual = 1.34209e-05, Final residual = 4.14266e-07, No Iterations 1
DICPCG:  Solving for G, Initial residual = 9.97929e-05, Final residual = 9.6728e-06, No Iterations 30
DILUPBiCGStab:  Solving for h, Initial residual = 0.000378287, Final residual = 1.838e-07, No Iterations 1
DICPCG:  Solving for p_rgh, Initial residual = 4.11818e-05, Final residual = 9.86211e-07, No Iterations 61
time step continuity errors : sum local = 4.92301e-08, global = 1.10345e-10, cumulative = 0.00011443
ExecutionTime = 685.24 s  ClockTime = 690 s

Time = 4980

DILUPBiCGStab:  Solving for Ux, Initial residual = 6.21633e-06, Final residual = 2.20674e-07, No Iterations 1
DILUPBiCGStab:  Solving for Uy, Initial residual = 1.64419e-05, Final residual = 5.88482e-07, No Iterations 1
DILUPBiCGStab:  Solving for Uz, Initial residual = 1.34195e-05, Final residual = 4.1424e-07, No Iterations 1
DICPCG:  Solving for G, Initial residual = 9.98284e-05, Final residual = 9.84515e-06, No Iterations 30
DILUPBiCGStab:  Solving for h, Initial residual = 0.000378274, Final residual = 1.83794e-07, No Iterations 1
DICPCG:  Solving for p_rgh, Initial residual = 4.11793e-05, Final residual = 9.86266e-07, No Iterations 61
time step continuity errors : sum local = 4.92326e-08, global = 1.10365e-10, cumulative = 0.00011443
ExecutionTime = 685.38 s  ClockTime = 690 s

Time = 4981

DILUPBiCGStab:  Solving for Ux, Initial residual = 6.21664e-06, Final residual = 2.20667e-07, No Iterations 1
DILUPBiCGStab:  Solving for Uy, Initial residual = 1.64414e-05, Final residual = 5.88431e-07, No Iterations 1
DILUPBiCGStab:  Solving for Uz, Initial residual = 1.34181e-05, Final residual = 4.14214e-07, No Iterations 1
DICPCG:  Solving for G, Initial residual = 9.98016e-05, Final residual = 9.69668e-06, No Iterations 30
DILUPBiCGStab:  Solving for h, Initial residual = 0.00037826, Final residual = 1.83789e-07, No Iterations 1
DICPCG:  Solving for p_rgh, Initial residual = 4.11767e-05, Final residual = 9.86302e-07, No Iterations 61
time step continuity errors : sum local = 4.92341e-08, global = 1.10389e-10, cumulative = 0.00011443
ExecutionTime = 685.52 s  ClockTime = 690 s

Time = 4982

DILUPBiCGStab:  Solving for Ux, Initial residual = 6.21696e-06, Final residual = 2.20661e-07, No Iterations 1
DILUPBiCGStab:  Solving for Uy, Initial residual = 1.6441e-05, Final residual = 5.88379e-07, No Iterations 1
DILUPBiCGStab:  Solving for Uz, Initial residual = 1.34167e-05, Final residual = 4.14188e-07, No Iterations 1
DICPCG:  Solving for G, Initial residual = 9.98141e-05, Final residual = 9.66342e-06, No Iterations 30
DILUPBiCGStab:  Solving for h, Initial residual = 0.000378247, Final residual = 1.83783e-07, No Iterations 1
DICPCG:  Solving for p_rgh, Initial residual = 4.11742e-05, Final residual = 9.8634e-07, No Iterations 61
time step continuity errors : sum local = 4.92357e-08, global = 1.10411e-10, cumulative = 0.00011443
ExecutionTime = 685.66 s  ClockTime = 690 s

Time = 4983

DILUPBiCGStab:  Solving for Ux, Initial residual = 6.21727e-06, Final residual = 2.20655e-07, No Iterations 1
DILUPBiCGStab:  Solving for Uy, Initial residual = 1.64405e-05, Final residual = 5.88328e-07, No Iterations 1
DILUPBiCGStab:  Solving for Uz, Initial residual = 1.34152e-05, Final residual = 4.14162e-07, No Iterations 1
DICPCG:  Solving for G, Initial residual = 9.9793e-05, Final residual = 9.70703e-06, No Iterations 30
DILUPBiCGStab:  Solving for h, Initial residual = 0.000378233, Final residual = 1.83777e-07, No Iterations 1
DICPCG:  Solving for p_rgh, Initial residual = 4.11717e-05, Final residual = 9.86384e-07, No Iterations 61
time step continuity errors : sum local = 4.92376e-08, global = 1.10434e-10, cumulative = 0.00011443
ExecutionTime = 685.8 s  ClockTime = 690 s

Time = 4984

DILUPBiCGStab:  Solving for Ux, Initial residual = 6.21759e-06, Final residual = 2.20649e-07, No Iterations 1
DILUPBiCGStab:  Solving for Uy, Initial residual = 1.64401e-05, Final residual = 5.88276e-07, No Iterations 1
DILUPBiCGStab:  Solving for Uz, Initial residual = 1.34138e-05, Final residual = 4.14136e-07, No Iterations 1
DICPCG:  Solving for G, Initial residual = 9.98161e-05, Final residual = 9.67531e-06, No Iterations 30
DILUPBiCGStab:  Solving for h, Initial residual = 0.00037822, Final residual = 1.83771e-07, No Iterations 1
DICPCG:  Solving for p_rgh, Initial residual = 4.11691e-05, Final residual = 9.86435e-07, No Iterations 61
time step continuity errors : sum local = 4.92399e-08, global = 1.10458e-10, cumulative = 0.00011443
ExecutionTime = 685.94 s  ClockTime = 690 s

Time = 4985

DILUPBiCGStab:  Solving for Ux, Initial residual = 6.21791e-06, Final residual = 2.20643e-07, No Iterations 1
DILUPBiCGStab:  Solving for Uy, Initial residual = 1.64396e-05, Final residual = 5.88225e-07, No Iterations 1
DILUPBiCGStab:  Solving for Uz, Initial residual = 1.34124e-05, Final residual = 4.14111e-07, No Iterations 1
DICPCG:  Solving for G, Initial residual = 9.97972e-05, Final residual = 9.73914e-06, No Iterations 30
DILUPBiCGStab:  Solving for h, Initial residual = 0.000378206, Final residual = 1.83766e-07, No Iterations 1
DICPCG:  Solving for p_rgh, Initial residual = 4.11666e-05, Final residual = 9.86474e-07, No Iterations 61
time step continuity errors : sum local = 4.92416e-08, global = 1.10482e-10, cumulative = 0.00011443
ExecutionTime = 686.07 s  ClockTime = 690 s

Time = 4986

DILUPBiCGStab:  Solving for Ux, Initial residual = 6.21823e-06, Final residual = 2.20638e-07, No Iterations 1
DILUPBiCGStab:  Solving for Uy, Initial residual = 1.64392e-05, Final residual = 5.88174e-07, No Iterations 1
DILUPBiCGStab:  Solving for Uz, Initial residual = 1.3411e-05, Final residual = 4.14085e-07, No Iterations 1
DICPCG:  Solving for G, Initial residual = 9.98011e-05, Final residual = 9.54121e-06, No Iterations 30
DILUPBiCGStab:  Solving for h, Initial residual = 0.000378193, Final residual = 1.8376e-07, No Iterations 1
DICPCG:  Solving for p_rgh, Initial residual = 4.1164e-05, Final residual = 9.86513e-07, No Iterations 61
time step continuity errors : sum local = 4.92432e-08, global = 1.10503e-10, cumulative = 0.00011443
ExecutionTime = 686.21 s  ClockTime = 691 s

Time = 4987

DILUPBiCGStab:  Solving for Ux, Initial residual = 6.21855e-06, Final residual = 2.20632e-07, No Iterations 1
DILUPBiCGStab:  Solving for Uy, Initial residual = 1.64387e-05, Final residual = 5.88123e-07, No Iterations 1
DILUPBiCGStab:  Solving for Uz, Initial residual = 1.34096e-05, Final residual = 4.14059e-07, No Iterations 1
DICPCG:  Solving for G, Initial residual = 9.97952e-05, Final residual = 9.70198e-06, No Iterations 30
DILUPBiCGStab:  Solving for h, Initial residual = 0.000378179, Final residual = 1.83754e-07, No Iterations 1
DICPCG:  Solving for p_rgh, Initial residual = 4.11615e-05, Final residual = 9.8656e-07, No Iterations 61
time step continuity errors : sum local = 4.92453e-08, global = 1.10526e-10, cumulative = 0.000114431
ExecutionTime = 686.34 s  ClockTime = 691 s

Time = 4988

DILUPBiCGStab:  Solving for Ux, Initial residual = 6.21887e-06, Final residual = 2.20626e-07, No Iterations 1
DILUPBiCGStab:  Solving for Uy, Initial residual = 1.64383e-05, Final residual = 5.88072e-07, No Iterations 1
DILUPBiCGStab:  Solving for Uz, Initial residual = 1.34082e-05, Final residual = 4.14033e-07, No Iterations 1
DICPCG:  Solving for G, Initial residual = 9.97931e-05, Final residual = 9.70691e-06, No Iterations 30
DILUPBiCGStab:  Solving for h, Initial residual = 0.000378166, Final residual = 1.83748e-07, No Iterations 1
DICPCG:  Solving for p_rgh, Initial residual = 4.1159e-05, Final residual = 9.86599e-07, No Iterations 61
time step continuity errors : sum local = 4.9247e-08, global = 1.10546e-10, cumulative = 0.000114431
ExecutionTime = 686.49 s  ClockTime = 691 s

Time = 4989

DILUPBiCGStab:  Solving for Ux, Initial residual = 6.2192e-06, Final residual = 2.20621e-07, No Iterations 1
DILUPBiCGStab:  Solving for Uy, Initial residual = 1.64379e-05, Final residual = 5.88021e-07, No Iterations 1
DILUPBiCGStab:  Solving for Uz, Initial residual = 1.34068e-05, Final residual = 4.14008e-07, No Iterations 1
DICPCG:  Solving for G, Initial residual = 9.97888e-05, Final residual = 9.67978e-06, No Iterations 30
DILUPBiCGStab:  Solving for h, Initial residual = 0.000378152, Final residual = 1.83743e-07, No Iterations 1
DICPCG:  Solving for p_rgh, Initial residual = 4.11564e-05, Final residual = 9.86641e-07, No Iterations 61
time step continuity errors : sum local = 4.92488e-08, global = 1.10571e-10, cumulative = 0.000114431
ExecutionTime = 686.63 s  ClockTime = 691 s

Time = 4990

DILUPBiCGStab:  Solving for Ux, Initial residual = 6.21952e-06, Final residual = 2.20616e-07, No Iterations 1
DILUPBiCGStab:  Solving for Uy, Initial residual = 1.64374e-05, Final residual = 5.8797e-07, No Iterations 1
DILUPBiCGStab:  Solving for Uz, Initial residual = 1.34053e-05, Final residual = 4.13982e-07, No Iterations 1
DICPCG:  Solving for G, Initial residual = 9.97864e-05, Final residual = 9.71832e-06, No Iterations 30
DILUPBiCGStab:  Solving for h, Initial residual = 0.000378139, Final residual = 1.83737e-07, No Iterations 1
DICPCG:  Solving for p_rgh, Initial residual = 4.11539e-05, Final residual = 9.86681e-07, No Iterations 61
time step continuity errors : sum local = 4.92505e-08, global = 1.10593e-10, cumulative = 0.000114431
ExecutionTime = 686.77 s  ClockTime = 691 s

Time = 4991

DILUPBiCGStab:  Solving for Ux, Initial residual = 6.21985e-06, Final residual = 2.20611e-07, No Iterations 1
DILUPBiCGStab:  Solving for Uy, Initial residual = 1.6437e-05, Final residual = 5.87919e-07, No Iterations 1
DILUPBiCGStab:  Solving for Uz, Initial residual = 1.34039e-05, Final residual = 4.13956e-07, No Iterations 1
DICPCG:  Solving for G, Initial residual = 9.97837e-05, Final residual = 9.25481e-06, No Iterations 30
DILUPBiCGStab:  Solving for h, Initial residual = 0.000378125, Final residual = 1.83731e-07, No Iterations 1
DICPCG:  Solving for p_rgh, Initial residual = 4.11513e-05, Final residual = 9.86709e-07, No Iterations 61
time step continuity errors : sum local = 4.92516e-08, global = 1.10616e-10, cumulative = 0.000114431
ExecutionTime = 686.91 s  ClockTime = 691 s

Time = 4992

DILUPBiCGStab:  Solving for Ux, Initial residual = 6.22017e-06, Final residual = 2.20605e-07, No Iterations 1
DILUPBiCGStab:  Solving for Uy, Initial residual = 1.64365e-05, Final residual = 5.87869e-07, No Iterations 1
DILUPBiCGStab:  Solving for Uz, Initial residual = 1.34025e-05, Final residual = 4.13931e-07, No Iterations 1
DICPCG:  Solving for G, Initial residual = 9.97332e-05, Final residual = 9.65691e-06, No Iterations 30
DILUPBiCGStab:  Solving for h, Initial residual = 0.000378112, Final residual = 1.83725e-07, No Iterations 1
DICPCG:  Solving for p_rgh, Initial residual = 4.11488e-05, Final residual = 9.86755e-07, No Iterations 61
time step continuity errors : sum local = 4.92537e-08, global = 1.10638e-10, cumulative = 0.000114431
ExecutionTime = 687.05 s  ClockTime = 691 s

Time = 4993

DILUPBiCGStab:  Solving for Ux, Initial residual = 6.2205e-06, Final residual = 2.206e-07, No Iterations 1
DILUPBiCGStab:  Solving for Uy, Initial residual = 1.64361e-05, Final residual = 5.87818e-07, No Iterations 1
DILUPBiCGStab:  Solving for Uz, Initial residual = 1.34011e-05, Final residual = 4.13905e-07, No Iterations 1
DICPCG:  Solving for G, Initial residual = 9.97692e-05, Final residual = 9.80048e-06, No Iterations 30
DILUPBiCGStab:  Solving for h, Initial residual = 0.000378098, Final residual = 1.8372e-07, No Iterations 1
DICPCG:  Solving for p_rgh, Initial residual = 4.11463e-05, Final residual = 9.86803e-07, No Iterations 61
time step continuity errors : sum local = 4.92558e-08, global = 1.1066e-10, cumulative = 0.000114431
ExecutionTime = 687.19 s  ClockTime = 692 s

Time = 4994

DILUPBiCGStab:  Solving for Ux, Initial residual = 6.22083e-06, Final residual = 2.20595e-07, No Iterations 1
DILUPBiCGStab:  Solving for Uy, Initial residual = 1.64357e-05, Final residual = 5.87767e-07, No Iterations 1
DILUPBiCGStab:  Solving for Uz, Initial residual = 1.33997e-05, Final residual = 4.1388e-07, No Iterations 1
DICPCG:  Solving for G, Initial residual = 9.97523e-05, Final residual = 9.69539e-06, No Iterations 30
DILUPBiCGStab:  Solving for h, Initial residual = 0.000378085, Final residual = 1.83714e-07, No Iterations 1
DICPCG:  Solving for p_rgh, Initial residual = 4.11438e-05, Final residual = 9.86842e-07, No Iterations 61
time step continuity errors : sum local = 4.92574e-08, global = 1.10683e-10, cumulative = 0.000114431
ExecutionTime = 687.32 s  ClockTime = 692 s

Time = 4995

DILUPBiCGStab:  Solving for Ux, Initial residual = 6.22116e-06, Final residual = 2.2059e-07, No Iterations 1
DILUPBiCGStab:  Solving for Uy, Initial residual = 1.64352e-05, Final residual = 5.87717e-07, No Iterations 1
DILUPBiCGStab:  Solving for Uz, Initial residual = 1.33983e-05, Final residual = 4.13854e-07, No Iterations 1
DICPCG:  Solving for G, Initial residual = 9.97622e-05, Final residual = 9.68421e-06, No Iterations 30
DILUPBiCGStab:  Solving for h, Initial residual = 0.000378071, Final residual = 1.83708e-07, No Iterations 1
DICPCG:  Solving for p_rgh, Initial residual = 4.11412e-05, Final residual = 9.86879e-07, No Iterations 61
time step continuity errors : sum local = 4.9259e-08, global = 1.10703e-10, cumulative = 0.000114431
ExecutionTime = 687.45 s  ClockTime = 692 s

Time = 4996

DILUPBiCGStab:  Solving for Ux, Initial residual = 6.22149e-06, Final residual = 2.20585e-07, No Iterations 1
DILUPBiCGStab:  Solving for Uy, Initial residual = 1.64348e-05, Final residual = 5.87667e-07, No Iterations 1
DILUPBiCGStab:  Solving for Uz, Initial residual = 1.33969e-05, Final residual = 4.13829e-07, No Iterations 1
DICPCG:  Solving for G, Initial residual = 9.97531e-05, Final residual = 9.28208e-06, No Iterations 30
DILUPBiCGStab:  Solving for h, Initial residual = 0.000378058, Final residual = 1.83702e-07, No Iterations 1
DICPCG:  Solving for p_rgh, Initial residual = 4.11387e-05, Final residual = 9.86913e-07, No Iterations 61
time step continuity errors : sum local = 4.92604e-08, global = 1.10725e-10, cumulative = 0.000114432
ExecutionTime = 687.58 s  ClockTime = 692 s

Time = 4997

DILUPBiCGStab:  Solving for Ux, Initial residual = 6.22183e-06, Final residual = 2.2058e-07, No Iterations 1
DILUPBiCGStab:  Solving for Uy, Initial residual = 1.64344e-05, Final residual = 5.87617e-07, No Iterations 1
DILUPBiCGStab:  Solving for Uz, Initial residual = 1.33955e-05, Final residual = 4.13804e-07, No Iterations 1
DICPCG:  Solving for G, Initial residual = 9.97172e-05, Final residual = 9.64096e-06, No Iterations 30
DILUPBiCGStab:  Solving for h, Initial residual = 0.000378044, Final residual = 1.83697e-07, No Iterations 1
DICPCG:  Solving for p_rgh, Initial residual = 4.11362e-05, Final residual = 9.8696e-07, No Iterations 61
time step continuity errors : sum local = 4.92625e-08, global = 1.10752e-10, cumulative = 0.000114432
ExecutionTime = 687.71 s  ClockTime = 692 s

Time = 4998

DILUPBiCGStab:  Solving for Ux, Initial residual = 6.22216e-06, Final residual = 2.20576e-07, No Iterations 1
DILUPBiCGStab:  Solving for Uy, Initial residual = 1.64339e-05, Final residual = 5.87567e-07, No Iterations 1
DILUPBiCGStab:  Solving for Uz, Initial residual = 1.33941e-05, Final residual = 4.13778e-07, No Iterations 1
DICPCG:  Solving for G, Initial residual = 9.97445e-05, Final residual = 9.80025e-06, No Iterations 30
DILUPBiCGStab:  Solving for h, Initial residual = 0.000378031, Final residual = 1.83691e-07, No Iterations 1
DICPCG:  Solving for p_rgh, Initial residual = 4.11336e-05, Final residual = 9.87004e-07, No Iterations 61
time step continuity errors : sum local = 4.92645e-08, global = 1.10772e-10, cumulative = 0.000114432
ExecutionTime = 687.84 s  ClockTime = 692 s

Time = 4999

DILUPBiCGStab:  Solving for Ux, Initial residual = 6.2225e-06, Final residual = 2.20571e-07, No Iterations 1
DILUPBiCGStab:  Solving for Uy, Initial residual = 1.64335e-05, Final residual = 5.87517e-07, No Iterations 1
DILUPBiCGStab:  Solving for Uz, Initial residual = 1.33927e-05, Final residual = 4.13753e-07, No Iterations 1
DICPCG:  Solving for G, Initial residual = 9.97366e-05, Final residual = 9.6272e-06, No Iterations 30
DILUPBiCGStab:  Solving for h, Initial residual = 0.000378018, Final residual = 1.83685e-07, No Iterations 1
DICPCG:  Solving for p_rgh, Initial residual = 4.11311e-05, Final residual = 9.87039e-07, No Iterations 61
time step continuity errors : sum local = 4.92659e-08, global = 1.10794e-10, cumulative = 0.000114432
ExecutionTime = 687.97 s  ClockTime = 692 s

Time = 5000

DILUPBiCGStab:  Solving for Ux, Initial residual = 6.22283e-06, Final residual = 2.20566e-07, No Iterations 1
DILUPBiCGStab:  Solving for Uy, Initial residual = 1.64331e-05, Final residual = 5.87467e-07, No Iterations 1
DILUPBiCGStab:  Solving for Uz, Initial residual = 1.33913e-05, Final residual = 4.13728e-07, No Iterations 1
DICPCG:  Solving for G, Initial residual = 9.9743e-05, Final residual = 9.70641e-06, No Iterations 30
DILUPBiCGStab:  Solving for h, Initial residual = 0.000378004, Final residual = 1.83679e-07, No Iterations 1
DICPCG:  Solving for p_rgh, Initial residual = 4.11286e-05, Final residual = 9.87083e-07, No Iterations 61
time step continuity errors : sum local = 4.92678e-08, global = 1.10817e-10, cumulative = 0.000114432
ExecutionTime = 688.11 s  ClockTime = 692 s

End

Finalising parallel run
