/*---------------------------------------------------------------------------*\
  =========                 |
  \\      /  F ield         | OpenFOAM: The Open Source CFD Toolbox
   \\    /   O peration     | Website:  https://openfoam.org
    \\  /    A nd           | Version:  9
     \\/     M anipulation  |
\*---------------------------------------------------------------------------*/
Build  : 9-89839ae3b8cd
Exec   : buoyantSimpleFoam -parallel
Date   : Apr 08 2022
Time   : 11:39:58
Host   : "0b4a0c9cd4c1"
PID    : 12314
I/O    : uncollated
Case   : /home/openfoam/STL_ThermalZones/STL_IGU_28
nProcs : 16
Slaves : 
15
(
"0b4a0c9cd4c1.12315"
"0b4a0c9cd4c1.12316"
"0b4a0c9cd4c1.12317"
"0b4a0c9cd4c1.12318"
"0b4a0c9cd4c1.12319"
"0b4a0c9cd4c1.12320"
"0b4a0c9cd4c1.12321"
"0b4a0c9cd4c1.12322"
"0b4a0c9cd4c1.12323"
"0b4a0c9cd4c1.12324"
"0b4a0c9cd4c1.12325"
"0b4a0c9cd4c1.12326"
"0b4a0c9cd4c1.12327"
"0b4a0c9cd4c1.12328"
"0b4a0c9cd4c1.12329"
)

Pstream initialised with:
    floatTransfer      : 0
    nProcsSimpleSum    : 0
    commsType          : nonBlocking
    polling iterations : 0
sigFpe : Enabling floating point exception trapping (FOAM_SIGFPE).
fileModificationChecking : Monitoring run-time modified files using timeStampMaster (fileModificationSkew 10)
allowSystemOperations : Allowing user-supplied system call operations

// * * * * * * * * * * * * * * * * * * * * * * * * * * * * * * * * * * * * * //
Create time

Create mesh for time = 0


SIMPLE: Convergence criteria found
        p_rgh: tolerance 0.0001
        U: tolerance 0.0001
        h: tolerance 0.0001
        G: tolerance 1e-05
        "(k|epsilon|omega)": tolerance 0.0001

Reading thermophysical properties

Selecting thermodynamics package 
{
    type            heRhoThermo;
    mixture         pureMixture;
    transport       const;
    thermo          hConst;
    equationOfState perfectGas;
    specie          specie;
    energy          sensibleEnthalpy;
}

Reading field U

Reading/calculating face flux field phi

Creating turbulence model

Selecting turbulence model type RAS
Selecting RAS turbulence model kEpsilon
RAS
{
    model           kEpsilon;
    turbulence      off;
    printCoeffs     on;
    Cmu             0.09;
    C1              1.44;
    C2              1.92;
    C3              0;
    sigmak          1;
    sigmaEps        1.3;
}

Creating thermophysical transport model

Selecting thermophysical transport type RAS
Selecting default RAS thermophysical transport model unityLewisEddyDiffusivity

Reading g

Reading hRef
Calculating field g.h


Reading pRef
Reading field p_rgh

No MRF models present

Creating fvModels from "constant/fvModels"

Selecting finite volume model type radiation
    Name: radiation
Selecting radiationModel P1
Selecting absorptionEmissionModel constant
Selecting scatterModel none
Selecting soot model none
--> FOAM Warning : Creating fvConstraints from "system/fvOptions"

Selecting finite volume constraint type limitTemperature
    Name: limitTemperature
    - selecting all cells
    - selected 109358 cell(s) with volume 38.952

Starting time loop

Time = 1

DILUPBiCGStab:  Solving for Ux, Initial residual = 1, Final residual = 0.00326603, No Iterations 1
DILUPBiCGStab:  Solving for Uy, Initial residual = 1, Final residual = 0.00409574, No Iterations 1
DILUPBiCGStab:  Solving for Uz, Initial residual = 1, Final residual = 0.00234598, No Iterations 1
DICPCG:  Solving for G, Initial residual = 1, Final residual = 0.0929941, No Iterations 22
DILUPBiCGStab:  Solving for h, Initial residual = 1, Final residual = 0.00451501, No Iterations 1
DICPCG:  Solving for p_rgh, Initial residual = 0.691483, Final residual = 0.00669285, No Iterations 63
time step continuity errors : sum local = 0.0219794, global = 8.36157e-05, cumulative = 8.36157e-05
ExecutionTime = 0.1 s  ClockTime = 0 s

Time = 2

DILUPBiCGStab:  Solving for Ux, Initial residual = 0.382102, Final residual = 0.00102153, No Iterations 1
DILUPBiCGStab:  Solving for Uy, Initial residual = 0.307258, Final residual = 0.000796988, No Iterations 1
DILUPBiCGStab:  Solving for Uz, Initial residual = 0.268473, Final residual = 0.000592673, No Iterations 1
DICPCG:  Solving for G, Initial residual = 0.757971, Final residual = 0.0652903, No Iterations 17
DILUPBiCGStab:  Solving for h, Initial residual = 0.0419498, Final residual = 0.000297884, No Iterations 1
DICPCG:  Solving for p_rgh, Initial residual = 0.830409, Final residual = 0.00827776, No Iterations 68
time step continuity errors : sum local = 0.00859025, global = 1.15612e-05, cumulative = 9.5177e-05
ExecutionTime = 0.17 s  ClockTime = 0 s

Time = 3

DILUPBiCGStab:  Solving for Ux, Initial residual = 0.316496, Final residual = 0.000833964, No Iterations 1
DILUPBiCGStab:  Solving for Uy, Initial residual = 0.258675, Final residual = 0.000633223, No Iterations 1
DILUPBiCGStab:  Solving for Uz, Initial residual = 0.929361, Final residual = 0.00170249, No Iterations 1
DICPCG:  Solving for G, Initial residual = 0.533654, Final residual = 0.0460746, No Iterations 15
DILUPBiCGStab:  Solving for h, Initial residual = 0.0241827, Final residual = 0.000192144, No Iterations 1
DICPCG:  Solving for p_rgh, Initial residual = 0.806003, Final residual = 0.00681289, No Iterations 68
time step continuity errors : sum local = 0.00656631, global = -5.37628e-06, cumulative = 8.98007e-05
ExecutionTime = 0.24 s  ClockTime = 0 s

Time = 4

DILUPBiCGStab:  Solving for Ux, Initial residual = 0.289282, Final residual = 0.000738709, No Iterations 1
DILUPBiCGStab:  Solving for Uy, Initial residual = 0.267678, Final residual = 0.000717183, No Iterations 1
DILUPBiCGStab:  Solving for Uz, Initial residual = 0.168284, Final residual = 0.000335597, No Iterations 1
DICPCG:  Solving for G, Initial residual = 0.133145, Final residual = 0.0130305, No Iterations 17
DILUPBiCGStab:  Solving for h, Initial residual = 0.0183403, Final residual = 0.000162469, No Iterations 1
DICPCG:  Solving for p_rgh, Initial residual = 0.66232, Final residual = 0.0056406, No Iterations 65
time step continuity errors : sum local = 0.00384334, global = 5.60624e-06, cumulative = 9.54069e-05
ExecutionTime = 0.3 s  ClockTime = 0 s

Time = 5

DILUPBiCGStab:  Solving for Ux, Initial residual = 0.238741, Final residual = 0.000640475, No Iterations 1
DILUPBiCGStab:  Solving for Uy, Initial residual = 0.233644, Final residual = 0.00056807, No Iterations 1
DILUPBiCGStab:  Solving for Uz, Initial residual = 0.807135, Final residual = 0.00217657, No Iterations 1
DICPCG:  Solving for G, Initial residual = 0.0274141, Final residual = 0.00249878, No Iterations 14
DILUPBiCGStab:  Solving for h, Initial residual = 0.0148354, Final residual = 0.000136231, No Iterations 1
DICPCG:  Solving for p_rgh, Initial residual = 0.673025, Final residual = 0.00528787, No Iterations 65
time step continuity errors : sum local = 0.00196503, global = 5.16118e-07, cumulative = 9.5923e-05
ExecutionTime = 0.36 s  ClockTime = 0 s

Time = 6

DILUPBiCGStab:  Solving for Ux, Initial residual = 0.226436, Final residual = 0.000548283, No Iterations 1
DILUPBiCGStab:  Solving for Uy, Initial residual = 0.236229, Final residual = 0.000545782, No Iterations 1
DILUPBiCGStab:  Solving for Uz, Initial residual = 0.31374, Final residual = 0.000726164, No Iterations 1
DICPCG:  Solving for G, Initial residual = 0.010789, Final residual = 0.00105046, No Iterations 19
DILUPBiCGStab:  Solving for h, Initial residual = 0.0127114, Final residual = 0.000121504, No Iterations 1
DICPCG:  Solving for p_rgh, Initial residual = 0.653004, Final residual = 0.00522358, No Iterations 65
time step continuity errors : sum local = 0.00128295, global = -4.06379e-06, cumulative = 9.18592e-05
ExecutionTime = 0.41 s  ClockTime = 0 s

Time = 7

DILUPBiCGStab:  Solving for Ux, Initial residual = 0.145246, Final residual = 0.000385351, No Iterations 1
DILUPBiCGStab:  Solving for Uy, Initial residual = 0.155359, Final residual = 0.000440605, No Iterations 1
DILUPBiCGStab:  Solving for Uz, Initial residual = 0.529804, Final residual = 0.00128254, No Iterations 1
DICPCG:  Solving for G, Initial residual = 0.00631543, Final residual = 0.000572202, No Iterations 19
DILUPBiCGStab:  Solving for h, Initial residual = 0.0112743, Final residual = 0.00011096, No Iterations 1
DICPCG:  Solving for p_rgh, Initial residual = 0.568968, Final residual = 0.00489402, No Iterations 64
time step continuity errors : sum local = 0.00071125, global = 2.87109e-07, cumulative = 9.21464e-05
ExecutionTime = 0.48 s  ClockTime = 0 s

Time = 8

DILUPBiCGStab:  Solving for Ux, Initial residual = 0.0791041, Final residual = 0.00019083, No Iterations 1
DILUPBiCGStab:  Solving for Uy, Initial residual = 0.101022, Final residual = 0.000221114, No Iterations 1
DILUPBiCGStab:  Solving for Uz, Initial residual = 0.258529, Final residual = 0.000548809, No Iterations 1
DICPCG:  Solving for G, Initial residual = 0.0048722, Final residual = 0.00047448, No Iterations 21
DILUPBiCGStab:  Solving for h, Initial residual = 0.0100137, Final residual = 2.69197e-06, No Iterations 1
DICPCG:  Solving for p_rgh, Initial residual = 0.508624, Final residual = 0.00433262, No Iterations 64
time step continuity errors : sum local = 0.000451156, global = -5.47494e-08, cumulative = 9.20916e-05
ExecutionTime = 0.54 s  ClockTime = 0 s

Time = 9

DILUPBiCGStab:  Solving for Ux, Initial residual = 0.0725454, Final residual = 0.000193393, No Iterations 1
DILUPBiCGStab:  Solving for Uy, Initial residual = 0.0894759, Final residual = 0.000233727, No Iterations 1
DILUPBiCGStab:  Solving for Uz, Initial residual = 0.206402, Final residual = 0.000531061, No Iterations 1
DICPCG:  Solving for G, Initial residual = 0.00435238, Final residual = 0.000337803, No Iterations 22
DILUPBiCGStab:  Solving for h, Initial residual = 0.0089381, Final residual = 2.48178e-06, No Iterations 1
DICPCG:  Solving for p_rgh, Initial residual = 0.337504, Final residual = 0.0030059, No Iterations 64
time step continuity errors : sum local = 0.000233238, global = 6.05463e-08, cumulative = 9.21522e-05
ExecutionTime = 0.6 s  ClockTime = 0 s

Time = 10

DILUPBiCGStab:  Solving for Ux, Initial residual = 0.0446699, Final residual = 0.000106743, No Iterations 1
DILUPBiCGStab:  Solving for Uy, Initial residual = 0.0637827, Final residual = 0.000136409, No Iterations 1
DILUPBiCGStab:  Solving for Uz, Initial residual = 0.142538, Final residual = 0.000359823, No Iterations 1
DICPCG:  Solving for G, Initial residual = 0.00391261, Final residual = 0.000301266, No Iterations 22
DILUPBiCGStab:  Solving for h, Initial residual = 0.00807436, Final residual = 2.30486e-06, No Iterations 1
DICPCG:  Solving for p_rgh, Initial residual = 0.269373, Final residual = 0.00230447, No Iterations 63
time step continuity errors : sum local = 0.000153195, global = 2.92838e-07, cumulative = 9.2445e-05
ExecutionTime = 0.68 s  ClockTime = 1 s

Time = 11

DILUPBiCGStab:  Solving for Ux, Initial residual = 0.0445478, Final residual = 0.000101848, No Iterations 1
DILUPBiCGStab:  Solving for Uy, Initial residual = 0.0614524, Final residual = 0.000142169, No Iterations 1
DILUPBiCGStab:  Solving for Uz, Initial residual = 0.0618596, Final residual = 0.000158836, No Iterations 1
DICPCG:  Solving for G, Initial residual = 0.00356452, Final residual = 0.000286713, No Iterations 22
DILUPBiCGStab:  Solving for h, Initial residual = 0.00736621, Final residual = 2.16281e-06, No Iterations 1
DICPCG:  Solving for p_rgh, Initial residual = 0.163944, Final residual = 0.00155176, No Iterations 25
time step continuity errors : sum local = 8.91369e-05, global = 2.67907e-05, cumulative = 0.000119236
ExecutionTime = 0.74 s  ClockTime = 1 s

Time = 12

DILUPBiCGStab:  Solving for Ux, Initial residual = 0.0327495, Final residual = 6.94145e-05, No Iterations 1
DILUPBiCGStab:  Solving for Uy, Initial residual = 0.0471789, Final residual = 0.000105132, No Iterations 1
DILUPBiCGStab:  Solving for Uz, Initial residual = 0.0608121, Final residual = 0.000151001, No Iterations 1
DICPCG:  Solving for G, Initial residual = 0.00327442, Final residual = 0.000262178, No Iterations 22
DILUPBiCGStab:  Solving for h, Initial residual = 0.00678342, Final residual = 2.05065e-06, No Iterations 1
DICPCG:  Solving for p_rgh, Initial residual = 0.126544, Final residual = 0.00119732, No Iterations 61
time step continuity errors : sum local = 6.32036e-05, global = -9.75653e-08, cumulative = 0.000119138
ExecutionTime = 0.82 s  ClockTime = 1 s

Time = 13

DILUPBiCGStab:  Solving for Ux, Initial residual = 0.0297284, Final residual = 6.90882e-05, No Iterations 1
DILUPBiCGStab:  Solving for Uy, Initial residual = 0.0433897, Final residual = 0.00010718, No Iterations 1
DILUPBiCGStab:  Solving for Uz, Initial residual = 0.0342478, Final residual = 7.97091e-05, No Iterations 1
DICPCG:  Solving for G, Initial residual = 0.00302173, Final residual = 0.000243319, No Iterations 22
DILUPBiCGStab:  Solving for h, Initial residual = 0.00627355, Final residual = 1.95829e-06, No Iterations 1
DICPCG:  Solving for p_rgh, Initial residual = 0.0866339, Final residual = 0.000815078, No Iterations 59
time step continuity errors : sum local = 4.07235e-05, global = 6.41312e-08, cumulative = 0.000119202
ExecutionTime = 0.88 s  ClockTime = 1 s

Time = 14

DILUPBiCGStab:  Solving for Ux, Initial residual = 0.0269079, Final residual = 6.27098e-05, No Iterations 1
DILUPBiCGStab:  Solving for Uy, Initial residual = 0.0386792, Final residual = 0.000100891, No Iterations 1
DILUPBiCGStab:  Solving for Uz, Initial residual = 0.0356453, Final residual = 9.0001e-05, No Iterations 1
DICPCG:  Solving for G, Initial residual = 0.00280036, Final residual = 0.00022416, No Iterations 22
DILUPBiCGStab:  Solving for h, Initial residual = 0.00582522, Final residual = 1.88052e-06, No Iterations 1
DICPCG:  Solving for p_rgh, Initial residual = 0.0695996, Final residual = 0.000618255, No Iterations 21
time step continuity errors : sum local = 2.9546e-05, global = -8.41906e-06, cumulative = 0.000110783
ExecutionTime = 0.95 s  ClockTime = 1 s

Time = 15

DILUPBiCGStab:  Solving for Ux, Initial residual = 0.0259201, Final residual = 5.90459e-05, No Iterations 1
DILUPBiCGStab:  Solving for Uy, Initial residual = 0.03655, Final residual = 9.7692e-05, No Iterations 1
DILUPBiCGStab:  Solving for Uz, Initial residual = 0.0259784, Final residual = 5.94695e-05, No Iterations 1
DICPCG:  Solving for G, Initial residual = 0.0026036, Final residual = 0.000208861, No Iterations 22
DILUPBiCGStab:  Solving for h, Initial residual = 0.00543317, Final residual = 1.81383e-06, No Iterations 1
DICPCG:  Solving for p_rgh, Initial residual = 0.0560861, Final residual = 0.000506936, No Iterations 20
time step continuity errors : sum local = 2.3287e-05, global = 6.22589e-06, cumulative = 0.000117009
ExecutionTime = 1.01 s  ClockTime = 1 s

Time = 16

DILUPBiCGStab:  Solving for Ux, Initial residual = 0.0247019, Final residual = 5.56614e-05, No Iterations 1
DILUPBiCGStab:  Solving for Uy, Initial residual = 0.0341573, Final residual = 9.51018e-05, No Iterations 1
DILUPBiCGStab:  Solving for Uz, Initial residual = 0.0239701, Final residual = 5.33412e-05, No Iterations 1
DICPCG:  Solving for G, Initial residual = 0.00243193, Final residual = 0.000188842, No Iterations 22
DILUPBiCGStab:  Solving for h, Initial residual = 0.00509977, Final residual = 1.75315e-06, No Iterations 1
DICPCG:  Solving for p_rgh, Initial residual = 0.0502315, Final residual = 0.00049144, No Iterations 54
time step continuity errors : sum local = 2.17049e-05, global = 8.10621e-09, cumulative = 0.000117017
ExecutionTime = 1.08 s  ClockTime = 1 s

Time = 17

DILUPBiCGStab:  Solving for Ux, Initial residual = 0.0233581, Final residual = 5.35572e-05, No Iterations 1
DILUPBiCGStab:  Solving for Uy, Initial residual = 0.0320109, Final residual = 9.2658e-05, No Iterations 1
DILUPBiCGStab:  Solving for Uz, Initial residual = 0.0233008, Final residual = 5.22657e-05, No Iterations 1
DICPCG:  Solving for G, Initial residual = 0.00227578, Final residual = 0.000175564, No Iterations 22
DILUPBiCGStab:  Solving for h, Initial residual = 0.00482307, Final residual = 1.69341e-06, No Iterations 1
DICPCG:  Solving for p_rgh, Initial residual = 0.0460692, Final residual = 0.000455688, No Iterations 55
time step continuity errors : sum local = 1.9483e-05, global = 2.80886e-09, cumulative = 0.00011702
ExecutionTime = 1.15 s  ClockTime = 1 s

Time = 18

DILUPBiCGStab:  Solving for Ux, Initial residual = 0.0223531, Final residual = 5.26647e-05, No Iterations 1
DILUPBiCGStab:  Solving for Uy, Initial residual = 0.0302739, Final residual = 8.89932e-05, No Iterations 1
DILUPBiCGStab:  Solving for Uz, Initial residual = 0.0227076, Final residual = 5.10241e-05, No Iterations 1
DICPCG:  Solving for G, Initial residual = 0.00213557, Final residual = 0.000162351, No Iterations 22
DILUPBiCGStab:  Solving for h, Initial residual = 0.00458356, Final residual = 1.63119e-06, No Iterations 1
DICPCG:  Solving for p_rgh, Initial residual = 0.0425135, Final residual = 0.000418857, No Iterations 57
time step continuity errors : sum local = 1.73348e-05, global = 8.12156e-08, cumulative = 0.000117101
ExecutionTime = 1.21 s  ClockTime = 1 s

Time = 19

DILUPBiCGStab:  Solving for Ux, Initial residual = 0.0215757, Final residual = 5.23402e-05, No Iterations 1
DILUPBiCGStab:  Solving for Uy, Initial residual = 0.0286916, Final residual = 8.33793e-05, No Iterations 1
DILUPBiCGStab:  Solving for Uz, Initial residual = 0.0212905, Final residual = 4.70101e-05, No Iterations 1
DICPCG:  Solving for G, Initial residual = 0.00200644, Final residual = 0.000196989, No Iterations 21
DILUPBiCGStab:  Solving for h, Initial residual = 0.00437774, Final residual = 1.56711e-06, No Iterations 1
DICPCG:  Solving for p_rgh, Initial residual = 0.0398815, Final residual = 0.00038126, No Iterations 52
time step continuity errors : sum local = 1.527e-05, global = 9.70621e-08, cumulative = 0.000117198
ExecutionTime = 1.28 s  ClockTime = 1 s

Time = 20

DILUPBiCGStab:  Solving for Ux, Initial residual = 0.0208965, Final residual = 5.1779e-05, No Iterations 1
DILUPBiCGStab:  Solving for Uy, Initial residual = 0.0272763, Final residual = 7.75027e-05, No Iterations 1
DILUPBiCGStab:  Solving for Uz, Initial residual = 0.0201293, Final residual = 4.3816e-05, No Iterations 1
DICPCG:  Solving for G, Initial residual = 0.00211649, Final residual = 0.000205897, No Iterations 17
DILUPBiCGStab:  Solving for h, Initial residual = 0.00419156, Final residual = 1.50539e-06, No Iterations 1
DICPCG:  Solving for p_rgh, Initial residual = 0.0372458, Final residual = 0.000362517, No Iterations 52
time step continuity errors : sum local = 1.41083e-05, global = 4.62246e-09, cumulative = 0.000117203
ExecutionTime = 1.35 s  ClockTime = 1 s

Time = 21

DILUPBiCGStab:  Solving for Ux, Initial residual = 0.0202384, Final residual = 5.19977e-05, No Iterations 1
DILUPBiCGStab:  Solving for Uy, Initial residual = 0.0259639, Final residual = 7.18873e-05, No Iterations 1
DILUPBiCGStab:  Solving for Uz, Initial residual = 0.0194394, Final residual = 4.17423e-05, No Iterations 1
DICPCG:  Solving for G, Initial residual = 0.00180331, Final residual = 0.000167575, No Iterations 21
DILUPBiCGStab:  Solving for h, Initial residual = 0.00402113, Final residual = 1.45225e-06, No Iterations 1
DICPCG:  Solving for p_rgh, Initial residual = 0.034599, Final residual = 0.000335726, No Iterations 50
time step continuity errors : sum local = 1.26933e-05, global = 1.69352e-07, cumulative = 0.000117372
ExecutionTime = 1.41 s  ClockTime = 1 s

Time = 22

DILUPBiCGStab:  Solving for Ux, Initial residual = 0.0195615, Final residual = 5.18406e-05, No Iterations 1
DILUPBiCGStab:  Solving for Uy, Initial residual = 0.0246498, Final residual = 6.53388e-05, No Iterations 1
DILUPBiCGStab:  Solving for Uz, Initial residual = 0.0186778, Final residual = 3.99015e-05, No Iterations 1
DICPCG:  Solving for G, Initial residual = 0.00169225, Final residual = 0.000156767, No Iterations 21
DILUPBiCGStab:  Solving for h, Initial residual = 0.00387022, Final residual = 1.40077e-06, No Iterations 1
DICPCG:  Solving for p_rgh, Initial residual = 0.0322997, Final residual = 0.000302405, No Iterations 51
time step continuity errors : sum local = 1.11142e-05, global = 2.61838e-09, cumulative = 0.000117375
ExecutionTime = 1.48 s  ClockTime = 1 s

Time = 23

DILUPBiCGStab:  Solving for Ux, Initial residual = 0.0189994, Final residual = 5.16463e-05, No Iterations 1
DILUPBiCGStab:  Solving for Uy, Initial residual = 0.023524, Final residual = 5.95523e-05, No Iterations 1
DILUPBiCGStab:  Solving for Uz, Initial residual = 0.0179449, Final residual = 3.83503e-05, No Iterations 1
DICPCG:  Solving for G, Initial residual = 0.00171614, Final residual = 0.000164125, No Iterations 21
DILUPBiCGStab:  Solving for h, Initial residual = 0.00373712, Final residual = 1.35183e-06, No Iterations 1
DICPCG:  Solving for p_rgh, Initial residual = 0.0300889, Final residual = 0.0002985, No Iterations 11
time step continuity errors : sum local = 1.06479e-05, global = -2.86508e-06, cumulative = 0.00011451
ExecutionTime = 1.55 s  ClockTime = 1 s

Time = 24

DILUPBiCGStab:  Solving for Ux, Initial residual = 0.0184908, Final residual = 5.07829e-05, No Iterations 1
DILUPBiCGStab:  Solving for Uy, Initial residual = 0.0224786, Final residual = 5.51682e-05, No Iterations 1
DILUPBiCGStab:  Solving for Uz, Initial residual = 0.0173898, Final residual = 3.63926e-05, No Iterations 1
DICPCG:  Solving for G, Initial residual = 0.00164153, Final residual = 0.000161075, No Iterations 18
DILUPBiCGStab:  Solving for h, Initial residual = 0.00361507, Final residual = 1.3075e-06, No Iterations 1
DICPCG:  Solving for p_rgh, Initial residual = 0.0280147, Final residual = 0.000269046, No Iterations 48
time step continuity errors : sum local = 9.37478e-06, global = -1.50016e-07, cumulative = 0.00011436
ExecutionTime = 1.6 s  ClockTime = 1 s

Time = 25

DILUPBiCGStab:  Solving for Ux, Initial residual = 0.0180541, Final residual = 5.0532e-05, No Iterations 1
DILUPBiCGStab:  Solving for Uy, Initial residual = 0.0214732, Final residual = 5.17409e-05, No Iterations 1
DILUPBiCGStab:  Solving for Uz, Initial residual = 0.0167788, Final residual = 3.48745e-05, No Iterations 1
DICPCG:  Solving for G, Initial residual = 0.00146553, Final residual = 0.000127315, No Iterations 21
DILUPBiCGStab:  Solving for h, Initial residual = 0.00350305, Final residual = 1.26709e-06, No Iterations 1
DICPCG:  Solving for p_rgh, Initial residual = 0.0260703, Final residual = 0.000256236, No Iterations 14
time step continuity errors : sum local = 8.71223e-06, global = 2.34987e-06, cumulative = 0.00011671
ExecutionTime = 1.67 s  ClockTime = 2 s

Time = 26

DILUPBiCGStab:  Solving for Ux, Initial residual = 0.0176395, Final residual = 4.99796e-05, No Iterations 1
DILUPBiCGStab:  Solving for Uy, Initial residual = 0.0205335, Final residual = 4.95798e-05, No Iterations 1
DILUPBiCGStab:  Solving for Uz, Initial residual = 0.016242, Final residual = 3.547e-05, No Iterations 1
DICPCG:  Solving for G, Initial residual = 0.00138486, Final residual = 0.000118128, No Iterations 21
DILUPBiCGStab:  Solving for h, Initial residual = 0.0034012, Final residual = 1.22915e-06, No Iterations 1
DICPCG:  Solving for p_rgh, Initial residual = 0.0245422, Final residual = 0.0002315, No Iterations 42
time step continuity errors : sum local = 7.69996e-06, global = -3.61837e-08, cumulative = 0.000116673
ExecutionTime = 1.73 s  ClockTime = 2 s

Time = 27

DILUPBiCGStab:  Solving for Ux, Initial residual = 0.0171851, Final residual = 4.90758e-05, No Iterations 1
DILUPBiCGStab:  Solving for Uy, Initial residual = 0.0196965, Final residual = 4.81917e-05, No Iterations 1
DILUPBiCGStab:  Solving for Uz, Initial residual = 0.015857, Final residual = 3.53004e-05, No Iterations 1
DICPCG:  Solving for G, Initial residual = 0.00132458, Final residual = 0.000111974, No Iterations 21
DILUPBiCGStab:  Solving for h, Initial residual = 0.00330756, Final residual = 1.19425e-06, No Iterations 1
DICPCG:  Solving for p_rgh, Initial residual = 0.0231914, Final residual = 0.000229779, No Iterations 12
time step continuity errors : sum local = 7.49475e-06, global = -1.28851e-06, cumulative = 0.000115385
ExecutionTime = 1.79 s  ClockTime = 2 s

Time = 28

DILUPBiCGStab:  Solving for Ux, Initial residual = 0.0168487, Final residual = 4.83052e-05, No Iterations 1
DILUPBiCGStab:  Solving for Uy, Initial residual = 0.0189182, Final residual = 4.67871e-05, No Iterations 1
DILUPBiCGStab:  Solving for Uz, Initial residual = 0.0154189, Final residual = 3.46116e-05, No Iterations 1
DICPCG:  Solving for G, Initial residual = 0.00127028, Final residual = 0.000125818, No Iterations 20
DILUPBiCGStab:  Solving for h, Initial residual = 0.00322098, Final residual = 1.16232e-06, No Iterations 1
DICPCG:  Solving for p_rgh, Initial residual = 0.0218894, Final residual = 0.000213724, No Iterations 49
time step continuity errors : sum local = 6.83882e-06, global = -1.6559e-07, cumulative = 0.000115219
ExecutionTime = 1.85 s  ClockTime = 2 s

Time = 29

DILUPBiCGStab:  Solving for Ux, Initial residual = 0.0165172, Final residual = 4.74624e-05, No Iterations 1
DILUPBiCGStab:  Solving for Uy, Initial residual = 0.018183, Final residual = 4.52205e-05, No Iterations 1
DILUPBiCGStab:  Solving for Uz, Initial residual = 0.0149711, Final residual = 3.37902e-05, No Iterations 1
DICPCG:  Solving for G, Initial residual = 0.00122834, Final residual = 0.000121029, No Iterations 20
DILUPBiCGStab:  Solving for h, Initial residual = 0.00314017, Final residual = 1.13294e-06, No Iterations 1
DICPCG:  Solving for p_rgh, Initial residual = 0.0207164, Final residual = 0.000182911, No Iterations 12
time step continuity errors : sum local = 5.74474e-06, global = -2.53672e-07, cumulative = 0.000114966
ExecutionTime = 1.91 s  ClockTime = 2 s

Time = 30

DILUPBiCGStab:  Solving for Ux, Initial residual = 0.01617, Final residual = 4.64847e-05, No Iterations 1
DILUPBiCGStab:  Solving for Uy, Initial residual = 0.0174726, Final residual = 4.38376e-05, No Iterations 1
DILUPBiCGStab:  Solving for Uz, Initial residual = 0.0146083, Final residual = 3.30796e-05, No Iterations 1
DICPCG:  Solving for G, Initial residual = 0.00118081, Final residual = 0.000112922, No Iterations 20
DILUPBiCGStab:  Solving for h, Initial residual = 0.00306473, Final residual = 1.1057e-06, No Iterations 1
DICPCG:  Solving for p_rgh, Initial residual = 0.0196194, Final residual = 0.000185743, No Iterations 13
time step continuity errors : sum local = 5.73817e-06, global = 5.8206e-07, cumulative = 0.000115548
ExecutionTime = 1.97 s  ClockTime = 2 s

Time = 31

DILUPBiCGStab:  Solving for Ux, Initial residual = 0.0158397, Final residual = 4.55157e-05, No Iterations 1
DILUPBiCGStab:  Solving for Uy, Initial residual = 0.0168183, Final residual = 4.24788e-05, No Iterations 1
DILUPBiCGStab:  Solving for Uz, Initial residual = 0.0142609, Final residual = 3.23584e-05, No Iterations 1
DICPCG:  Solving for G, Initial residual = 0.00113669, Final residual = 0.000107188, No Iterations 20
DILUPBiCGStab:  Solving for h, Initial residual = 0.00299459, Final residual = 1.08051e-06, No Iterations 1
DICPCG:  Solving for p_rgh, Initial residual = 0.0186586, Final residual = 0.000165335, No Iterations 16
time step continuity errors : sum local = 5.02969e-06, global = 1.17103e-06, cumulative = 0.000116719
ExecutionTime = 2.03 s  ClockTime = 2 s

Time = 32

DILUPBiCGStab:  Solving for Ux, Initial residual = 0.0155184, Final residual = 4.4547e-05, No Iterations 1
DILUPBiCGStab:  Solving for Uy, Initial residual = 0.016206, Final residual = 4.11626e-05, No Iterations 1
DILUPBiCGStab:  Solving for Uz, Initial residual = 0.0139235, Final residual = 3.16459e-05, No Iterations 1
DICPCG:  Solving for G, Initial residual = 0.00109713, Final residual = 0.000100521, No Iterations 20
DILUPBiCGStab:  Solving for h, Initial residual = 0.00292928, Final residual = 1.05721e-06, No Iterations 1
DICPCG:  Solving for p_rgh, Initial residual = 0.0177745, Final residual = 0.000171339, No Iterations 51
time step continuity errors : sum local = 5.13771e-06, global = 4.57389e-08, cumulative = 0.000116765
ExecutionTime = 2.1 s  ClockTime = 2 s

Time = 33

DILUPBiCGStab:  Solving for Ux, Initial residual = 0.0151807, Final residual = 4.35201e-05, No Iterations 1
DILUPBiCGStab:  Solving for Uy, Initial residual = 0.0156335, Final residual = 3.99856e-05, No Iterations 1
DILUPBiCGStab:  Solving for Uz, Initial residual = 0.0136139, Final residual = 3.0955e-05, No Iterations 1
DICPCG:  Solving for G, Initial residual = 0.00106002, Final residual = 9.43627e-05, No Iterations 20
DILUPBiCGStab:  Solving for h, Initial residual = 0.00286807, Final residual = 1.03565e-06, No Iterations 1
DICPCG:  Solving for p_rgh, Initial residual = 0.0169843, Final residual = 0.000151097, No Iterations 13
time step continuity errors : sum local = 4.47169e-06, global = -4.5628e-07, cumulative = 0.000116308
ExecutionTime = 2.16 s  ClockTime = 2 s

Time = 34

DILUPBiCGStab:  Solving for Ux, Initial residual = 0.0148741, Final residual = 4.25402e-05, No Iterations 1
DILUPBiCGStab:  Solving for Uy, Initial residual = 0.0150677, Final residual = 3.86737e-05, No Iterations 1
DILUPBiCGStab:  Solving for Uz, Initial residual = 0.013294, Final residual = 3.02324e-05, No Iterations 1
DICPCG:  Solving for G, Initial residual = 0.00102576, Final residual = 9.01308e-05, No Iterations 20
DILUPBiCGStab:  Solving for h, Initial residual = 0.00281042, Final residual = 1.01572e-06, No Iterations 1
DICPCG:  Solving for p_rgh, Initial residual = 0.0162077, Final residual = 0.000154525, No Iterations 16
time step continuity errors : sum local = 4.51565e-06, global = -1.31198e-06, cumulative = 0.000114996
ExecutionTime = 2.21 s  ClockTime = 2 s

Time = 35

DILUPBiCGStab:  Solving for Ux, Initial residual = 0.0145696, Final residual = 4.15758e-05, No Iterations 1
DILUPBiCGStab:  Solving for Uy, Initial residual = 0.0145449, Final residual = 3.74231e-05, No Iterations 1
DILUPBiCGStab:  Solving for Uz, Initial residual = 0.0129833, Final residual = 2.95241e-05, No Iterations 1
DICPCG:  Solving for G, Initial residual = 0.00099453, Final residual = 8.28552e-05, No Iterations 20
DILUPBiCGStab:  Solving for h, Initial residual = 0.00275615, Final residual = 9.97261e-07, No Iterations 1
DICPCG:  Solving for p_rgh, Initial residual = 0.0154837, Final residual = 0.000147337, No Iterations 49
time step continuity errors : sum local = 4.25416e-06, global = -5.36659e-08, cumulative = 0.000114943
ExecutionTime = 2.27 s  ClockTime = 2 s

Time = 36

DILUPBiCGStab:  Solving for Ux, Initial residual = 0.0142561, Final residual = 4.05715e-05, No Iterations 1
DILUPBiCGStab:  Solving for Uy, Initial residual = 0.0140611, Final residual = 3.61973e-05, No Iterations 1
DILUPBiCGStab:  Solving for Uz, Initial residual = 0.0126584, Final residual = 2.88047e-05, No Iterations 1
DICPCG:  Solving for G, Initial residual = 0.000964731, Final residual = 8.06323e-05, No Iterations 20
DILUPBiCGStab:  Solving for h, Initial residual = 0.00270498, Final residual = 9.80095e-07, No Iterations 1
DICPCG:  Solving for p_rgh, Initial residual = 0.0148114, Final residual = 0.000133141, No Iterations 16
time step continuity errors : sum local = 3.79875e-06, global = 5.39417e-07, cumulative = 0.000115482
ExecutionTime = 2.33 s  ClockTime = 2 s

Time = 37

DILUPBiCGStab:  Solving for Ux, Initial residual = 0.0139508, Final residual = 3.95774e-05, No Iterations 1
DILUPBiCGStab:  Solving for Uy, Initial residual = 0.0136122, Final residual = 3.37941e-05, No Iterations 1
DILUPBiCGStab:  Solving for Uz, Initial residual = 0.012383, Final residual = 2.81449e-05, No Iterations 1
DICPCG:  Solving for G, Initial residual = 0.00101631, Final residual = 8.30861e-05, No Iterations 17
DILUPBiCGStab:  Solving for h, Initial residual = 0.00265676, Final residual = 9.64141e-07, No Iterations 1
DICPCG:  Solving for p_rgh, Initial residual = 0.0141721, Final residual = 0.000128713, No Iterations 47
time step continuity errors : sum local = 3.63984e-06, global = 1.22202e-07, cumulative = 0.000115604
ExecutionTime = 2.4 s  ClockTime = 2 s

Time = 38

DILUPBiCGStab:  Solving for Ux, Initial residual = 0.0136481, Final residual = 3.87212e-05, No Iterations 1
DILUPBiCGStab:  Solving for Uy, Initial residual = 0.0131469, Final residual = 3.35838e-05, No Iterations 1
DILUPBiCGStab:  Solving for Uz, Initial residual = 0.0121761, Final residual = 2.42279e-05, No Iterations 1
DICPCG:  Solving for G, Initial residual = 0.00100739, Final residual = 0.000100303, No Iterations 18
DILUPBiCGStab:  Solving for h, Initial residual = 0.0026112, Final residual = 9.4975e-07, No Iterations 1
DICPCG:  Solving for p_rgh, Initial residual = 0.0136736, Final residual = 0.000126269, No Iterations 25
time step continuity errors : sum local = 3.5291e-06, global = 7.17185e-07, cumulative = 0.000116321
ExecutionTime = 2.45 s  ClockTime = 2 s

Time = 39

DILUPBiCGStab:  Solving for Ux, Initial residual = 0.0133381, Final residual = 3.77188e-05, No Iterations 1
DILUPBiCGStab:  Solving for Uy, Initial residual = 0.0127338, Final residual = 3.23082e-05, No Iterations 1
DILUPBiCGStab:  Solving for Uz, Initial residual = 0.0118925, Final residual = 2.49872e-05, No Iterations 1
DICPCG:  Solving for G, Initial residual = 0.000988298, Final residual = 8.15477e-05, No Iterations 17
DILUPBiCGStab:  Solving for h, Initial residual = 0.00256843, Final residual = 9.36256e-07, No Iterations 1
DICPCG:  Solving for p_rgh, Initial residual = 0.0131507, Final residual = 0.000117607, No Iterations 15
time step continuity errors : sum local = 3.26086e-06, global = -6.20343e-07, cumulative = 0.000115701
ExecutionTime = 2.51 s  ClockTime = 2 s

Time = 40

DILUPBiCGStab:  Solving for Ux, Initial residual = 0.0130318, Final residual = 3.68524e-05, No Iterations 1
DILUPBiCGStab:  Solving for Uy, Initial residual = 0.0123564, Final residual = 3.18839e-05, No Iterations 1
DILUPBiCGStab:  Solving for Uz, Initial residual = 0.0116383, Final residual = 2.40427e-05, No Iterations 1
DICPCG:  Solving for G, Initial residual = 0.000888449, Final residual = 8.66145e-05, No Iterations 18
DILUPBiCGStab:  Solving for h, Initial residual = 0.00252811, Final residual = 9.2392e-07, No Iterations 1
DICPCG:  Solving for p_rgh, Initial residual = 0.0126423, Final residual = 0.000100894, No Iterations 16
time step continuity errors : sum local = 2.77142e-06, global = -1.05311e-07, cumulative = 0.000115596
ExecutionTime = 2.57 s  ClockTime = 2 s

Time = 41

DILUPBiCGStab:  Solving for Ux, Initial residual = 0.012754, Final residual = 3.59917e-05, No Iterations 1
DILUPBiCGStab:  Solving for Uy, Initial residual = 0.0119505, Final residual = 3.09963e-05, No Iterations 1
DILUPBiCGStab:  Solving for Uz, Initial residual = 0.0113667, Final residual = 2.5442e-05, No Iterations 1
DICPCG:  Solving for G, Initial residual = 0.000858762, Final residual = 8.38296e-05, No Iterations 18
DILUPBiCGStab:  Solving for h, Initial residual = 0.0024903, Final residual = 9.12415e-07, No Iterations 1
DICPCG:  Solving for p_rgh, Initial residual = 0.0121826, Final residual = 0.000115783, No Iterations 17
time step continuity errors : sum local = 3.15202e-06, global = -2.41226e-07, cumulative = 0.000115355
ExecutionTime = 2.62 s  ClockTime = 2 s

Time = 42

DILUPBiCGStab:  Solving for Ux, Initial residual = 0.0124564, Final residual = 3.50833e-05, No Iterations 1
DILUPBiCGStab:  Solving for Uy, Initial residual = 0.0115932, Final residual = 3.01675e-05, No Iterations 1
DILUPBiCGStab:  Solving for Uz, Initial residual = 0.0111141, Final residual = 2.50724e-05, No Iterations 1
DICPCG:  Solving for G, Initial residual = 0.000840109, Final residual = 8.09141e-05, No Iterations 18
DILUPBiCGStab:  Solving for h, Initial residual = 0.00245489, Final residual = 9.02062e-07, No Iterations 1
DICPCG:  Solving for p_rgh, Initial residual = 0.0117744, Final residual = 0.000113722, No Iterations 19
time step continuity errors : sum local = 3.06977e-06, global = -5.35305e-07, cumulative = 0.000114819
ExecutionTime = 2.68 s  ClockTime = 3 s

Time = 43

DILUPBiCGStab:  Solving for Ux, Initial residual = 0.0121535, Final residual = 3.41857e-05, No Iterations 1
DILUPBiCGStab:  Solving for Uy, Initial residual = 0.0112645, Final residual = 2.93893e-05, No Iterations 1
DILUPBiCGStab:  Solving for Uz, Initial residual = 0.0108746, Final residual = 2.45038e-05, No Iterations 1
DICPCG:  Solving for G, Initial residual = 0.000822591, Final residual = 7.86329e-05, No Iterations 18
DILUPBiCGStab:  Solving for h, Initial residual = 0.00242152, Final residual = 8.92812e-07, No Iterations 1
DICPCG:  Solving for p_rgh, Initial residual = 0.0113864, Final residual = 0.000100102, No Iterations 49
time step continuity errors : sum local = 2.68033e-06, global = -4.69657e-08, cumulative = 0.000114772
ExecutionTime = 2.75 s  ClockTime = 3 s

Time = 44

DILUPBiCGStab:  Solving for Ux, Initial residual = 0.0118751, Final residual = 3.33314e-05, No Iterations 1
DILUPBiCGStab:  Solving for Uy, Initial residual = 0.0109424, Final residual = 2.85543e-05, No Iterations 1
DILUPBiCGStab:  Solving for Uz, Initial residual = 0.0106304, Final residual = 2.39479e-05, No Iterations 1
DICPCG:  Solving for G, Initial residual = 0.000807269, Final residual = 7.65001e-05, No Iterations 18
DILUPBiCGStab:  Solving for h, Initial residual = 0.00239004, Final residual = 8.84332e-07, No Iterations 1
DICPCG:  Solving for p_rgh, Initial residual = 0.0110285, Final residual = 0.000107576, No Iterations 16
time step continuity errors : sum local = 2.85768e-06, global = 1.23699e-07, cumulative = 0.000114896
ExecutionTime = 2.8 s  ClockTime = 3 s

Time = 45

DILUPBiCGStab:  Solving for Ux, Initial residual = 0.0115946, Final residual = 3.25085e-05, No Iterations 1
DILUPBiCGStab:  Solving for Uy, Initial residual = 0.0106331, Final residual = 2.77719e-05, No Iterations 1
DILUPBiCGStab:  Solving for Uz, Initial residual = 0.0104088, Final residual = 2.34243e-05, No Iterations 1
DICPCG:  Solving for G, Initial residual = 0.00079244, Final residual = 7.47713e-05, No Iterations 18
DILUPBiCGStab:  Solving for h, Initial residual = 0.00236036, Final residual = 8.76699e-07, No Iterations 1
DICPCG:  Solving for p_rgh, Initial residual = 0.0106919, Final residual = 0.000105422, No Iterations 17
time step continuity errors : sum local = 2.78001e-06, global = 4.77994e-07, cumulative = 0.000115374
ExecutionTime = 2.85 s  ClockTime = 3 s

Time = 46

DILUPBiCGStab:  Solving for Ux, Initial residual = 0.011318, Final residual = 3.1699e-05, No Iterations 1
DILUPBiCGStab:  Solving for Uy, Initial residual = 0.0103367, Final residual = 2.70211e-05, No Iterations 1
DILUPBiCGStab:  Solving for Uz, Initial residual = 0.010191, Final residual = 2.29185e-05, No Iterations 1
DICPCG:  Solving for G, Initial residual = 0.000779295, Final residual = 7.30102e-05, No Iterations 18
DILUPBiCGStab:  Solving for h, Initial residual = 0.00233232, Final residual = 8.69693e-07, No Iterations 1
DICPCG:  Solving for p_rgh, Initial residual = 0.0103797, Final residual = 9.70093e-05, No Iterations 18
time step continuity errors : sum local = 2.54023e-06, global = 7.63032e-07, cumulative = 0.000116137
ExecutionTime = 2.91 s  ClockTime = 3 s

Time = 47

DILUPBiCGStab:  Solving for Ux, Initial residual = 0.0110479, Final residual = 3.09037e-05, No Iterations 1
DILUPBiCGStab:  Solving for Uy, Initial residual = 0.0100587, Final residual = 2.63136e-05, No Iterations 1
DILUPBiCGStab:  Solving for Uz, Initial residual = 0.00997703, Final residual = 2.24236e-05, No Iterations 1
DICPCG:  Solving for G, Initial residual = 0.000766157, Final residual = 7.17122e-05, No Iterations 18
DILUPBiCGStab:  Solving for h, Initial residual = 0.00230588, Final residual = 8.63302e-07, No Iterations 1
DICPCG:  Solving for p_rgh, Initial residual = 0.0100906, Final residual = 9.67051e-05, No Iterations 51
time step continuity errors : sum local = 2.51527e-06, global = 2.56784e-08, cumulative = 0.000116163
ExecutionTime = 2.96 s  ClockTime = 3 s

Time = 48

DILUPBiCGStab:  Solving for Ux, Initial residual = 0.0107707, Final residual = 3.00996e-05, No Iterations 1
DILUPBiCGStab:  Solving for Uy, Initial residual = 0.00979858, Final residual = 2.56442e-05, No Iterations 1
DILUPBiCGStab:  Solving for Uz, Initial residual = 0.0097806, Final residual = 2.19366e-05, No Iterations 1
DICPCG:  Solving for G, Initial residual = 0.000754679, Final residual = 7.01957e-05, No Iterations 18
DILUPBiCGStab:  Solving for h, Initial residual = 0.0022808, Final residual = 8.57391e-07, No Iterations 1
DICPCG:  Solving for p_rgh, Initial residual = 0.00982921, Final residual = 8.83672e-05, No Iterations 18
time step continuity errors : sum local = 2.28416e-06, global = -3.18507e-07, cumulative = 0.000115844
ExecutionTime = 3.02 s  ClockTime = 3 s

Time = 49

DILUPBiCGStab:  Solving for Ux, Initial residual = 0.0105185, Final residual = 2.93611e-05, No Iterations 1
DILUPBiCGStab:  Solving for Uy, Initial residual = 0.00953788, Final residual = 2.4981e-05, No Iterations 1
DILUPBiCGStab:  Solving for Uz, Initial residual = 0.00957588, Final residual = 2.14743e-05, No Iterations 1
DICPCG:  Solving for G, Initial residual = 0.000743176, Final residual = 6.92297e-05, No Iterations 18
DILUPBiCGStab:  Solving for h, Initial residual = 0.00225712, Final residual = 8.51901e-07, No Iterations 1
DICPCG:  Solving for p_rgh, Initial residual = 0.00956495, Final residual = 9.4487e-05, No Iterations 52
time step continuity errors : sum local = 2.42736e-06, global = -6.56384e-08, cumulative = 0.000115779
ExecutionTime = 3.08 s  ClockTime = 3 s

Time = 50

DILUPBiCGStab:  Solving for Ux, Initial residual = 0.0102676, Final residual = 2.86155e-05, No Iterations 1
DILUPBiCGStab:  Solving for Uy, Initial residual = 0.00930548, Final residual = 2.43845e-05, No Iterations 1
DILUPBiCGStab:  Solving for Uz, Initial residual = 0.0093594, Final residual = 2.10115e-05, No Iterations 1
DICPCG:  Solving for G, Initial residual = 0.000733317, Final residual = 6.79416e-05, No Iterations 18
DILUPBiCGStab:  Solving for h, Initial residual = 0.00223473, Final residual = 8.46804e-07, No Iterations 1
DICPCG:  Solving for p_rgh, Initial residual = 0.00930466, Final residual = 8.54132e-05, No Iterations 17
time step continuity errors : sum local = 2.18085e-06, global = 1.06407e-08, cumulative = 0.000115789
ExecutionTime = 3.15 s  ClockTime = 3 s

Time = 51

DILUPBiCGStab:  Solving for Ux, Initial residual = 0.0100262, Final residual = 2.79191e-05, No Iterations 1
DILUPBiCGStab:  Solving for Uy, Initial residual = 0.00906512, Final residual = 2.37648e-05, No Iterations 1
DILUPBiCGStab:  Solving for Uz, Initial residual = 0.00916758, Final residual = 2.05739e-05, No Iterations 1
DICPCG:  Solving for G, Initial residual = 0.000723159, Final residual = 6.72796e-05, No Iterations 18
DILUPBiCGStab:  Solving for h, Initial residual = 0.00221361, Final residual = 8.42089e-07, No Iterations 1
DICPCG:  Solving for p_rgh, Initial residual = 0.00905748, Final residual = 7.45733e-05, No Iterations 18
time step continuity errors : sum local = 1.89339e-06, global = 2.94308e-07, cumulative = 0.000116083
ExecutionTime = 3.21 s  ClockTime = 3 s

Time = 52

DILUPBiCGStab:  Solving for Ux, Initial residual = 0.00978616, Final residual = 2.72288e-05, No Iterations 1
DILUPBiCGStab:  Solving for Uy, Initial residual = 0.00884522, Final residual = 2.31949e-05, No Iterations 1
DILUPBiCGStab:  Solving for Uz, Initial residual = 0.00897717, Final residual = 2.01407e-05, No Iterations 1
DICPCG:  Solving for G, Initial residual = 0.000714627, Final residual = 6.61429e-05, No Iterations 18
DILUPBiCGStab:  Solving for h, Initial residual = 0.00219369, Final residual = 8.37775e-07, No Iterations 1
DICPCG:  Solving for p_rgh, Initial residual = 0.00883543, Final residual = 8.79395e-05, No Iterations 18
time step continuity errors : sum local = 2.22066e-06, global = 5.2556e-07, cumulative = 0.000116609
ExecutionTime = 3.26 s  ClockTime = 3 s

Time = 53

DILUPBiCGStab:  Solving for Ux, Initial residual = 0.00955215, Final residual = 2.65516e-05, No Iterations 1
DILUPBiCGStab:  Solving for Uy, Initial residual = 0.00863809, Final residual = 2.26561e-05, No Iterations 1
DILUPBiCGStab:  Solving for Uz, Initial residual = 0.00879046, Final residual = 1.9721e-05, No Iterations 1
DICPCG:  Solving for G, Initial residual = 0.000705643, Final residual = 6.57711e-05, No Iterations 18
DILUPBiCGStab:  Solving for h, Initial residual = 0.00217486, Final residual = 8.33779e-07, No Iterations 1
DICPCG:  Solving for p_rgh, Initial residual = 0.0086243, Final residual = 7.94509e-05, No Iterations 55
time step continuity errors : sum local = 1.99585e-06, global = 1.17619e-08, cumulative = 0.000116621
ExecutionTime = 3.33 s  ClockTime = 3 s

Time = 54

DILUPBiCGStab:  Solving for Ux, Initial residual = 0.00931316, Final residual = 2.58686e-05, No Iterations 1
DILUPBiCGStab:  Solving for Uy, Initial residual = 0.00844292, Final residual = 2.21481e-05, No Iterations 1
DILUPBiCGStab:  Solving for Uz, Initial residual = 0.00861866, Final residual = 1.9317e-05, No Iterations 1
DICPCG:  Solving for G, Initial residual = 0.000698349, Final residual = 6.47121e-05, No Iterations 18
DILUPBiCGStab:  Solving for h, Initial residual = 0.00215691, Final residual = 8.30142e-07, No Iterations 1
DICPCG:  Solving for p_rgh, Initial residual = 0.00843361, Final residual = 7.3974e-05, No Iterations 18
time step continuity errors : sum local = 1.84923e-06, global = -1.94573e-07, cumulative = 0.000116426
ExecutionTime = 3.38 s  ClockTime = 3 s

Time = 55

DILUPBiCGStab:  Solving for Ux, Initial residual = 0.00910475, Final residual = 2.52621e-05, No Iterations 1
DILUPBiCGStab:  Solving for Uy, Initial residual = 0.00824144, Final residual = 2.16215e-05, No Iterations 1
DILUPBiCGStab:  Solving for Uz, Initial residual = 0.00844031, Final residual = 1.89265e-05, No Iterations 1
DICPCG:  Solving for G, Initial residual = 0.000690434, Final residual = 6.45968e-05, No Iterations 18
DILUPBiCGStab:  Solving for h, Initial residual = 0.00213981, Final residual = 8.26773e-07, No Iterations 1
DICPCG:  Solving for p_rgh, Initial residual = 0.00823828, Final residual = 8.00815e-05, No Iterations 19
time step continuity errors : sum local = 1.9922e-06, global = -5.23538e-07, cumulative = 0.000115903
ExecutionTime = 3.44 s  ClockTime = 3 s

Time = 56

DILUPBiCGStab:  Solving for Ux, Initial residual = 0.00889246, Final residual = 2.46465e-05, No Iterations 1
DILUPBiCGStab:  Solving for Uy, Initial residual = 0.00805744, Final residual = 2.11432e-05, No Iterations 1
DILUPBiCGStab:  Solving for Uz, Initial residual = 0.00826571, Final residual = 1.85483e-05, No Iterations 1
DICPCG:  Solving for G, Initial residual = 0.000684201, Final residual = 6.35932e-05, No Iterations 18
DILUPBiCGStab:  Solving for h, Initial residual = 0.00212348, Final residual = 8.23688e-07, No Iterations 1
DICPCG:  Solving for p_rgh, Initial residual = 0.0080431, Final residual = 7.72768e-05, No Iterations 54
time step continuity errors : sum local = 1.91341e-06, global = -2.90884e-08, cumulative = 0.000115874
ExecutionTime = 3.5 s  ClockTime = 3 s

Time = 57

DILUPBiCGStab:  Solving for Ux, Initial residual = 0.00868675, Final residual = 2.40353e-05, No Iterations 1
DILUPBiCGStab:  Solving for Uy, Initial residual = 0.00788724, Final residual = 2.07054e-05, No Iterations 1
DILUPBiCGStab:  Solving for Uz, Initial residual = 0.00808585, Final residual = 1.81768e-05, No Iterations 1
DICPCG:  Solving for G, Initial residual = 0.000677162, Final residual = 6.36696e-05, No Iterations 18
DILUPBiCGStab:  Solving for h, Initial residual = 0.00210788, Final residual = 8.2085e-07, No Iterations 1
DICPCG:  Solving for p_rgh, Initial residual = 0.00784699, Final residual = 7.36109e-05, No Iterations 18
time step continuity errors : sum local = 1.81407e-06, global = 2.40622e-07, cumulative = 0.000116114
ExecutionTime = 3.55 s  ClockTime = 3 s

Time = 58

DILUPBiCGStab:  Solving for Ux, Initial residual = 0.0084913, Final residual = 2.34763e-05, No Iterations 1
DILUPBiCGStab:  Solving for Uy, Initial residual = 0.00770857, Final residual = 2.02388e-05, No Iterations 1
DILUPBiCGStab:  Solving for Uz, Initial residual = 0.00792624, Final residual = 1.78216e-05, No Iterations 1
DICPCG:  Solving for G, Initial residual = 0.000671805, Final residual = 6.26872e-05, No Iterations 18
DILUPBiCGStab:  Solving for h, Initial residual = 0.00209293, Final residual = 8.1824e-07, No Iterations 1
DICPCG:  Solving for p_rgh, Initial residual = 0.00767417, Final residual = 6.27841e-05, No Iterations 49
time step continuity errors : sum local = 1.54063e-06, global = 4.40121e-08, cumulative = 0.000116158
ExecutionTime = 3.62 s  ClockTime = 3 s

Time = 59

DILUPBiCGStab:  Solving for Ux, Initial residual = 0.00829553, Final residual = 2.2923e-05, No Iterations 1
DILUPBiCGStab:  Solving for Uy, Initial residual = 0.00754809, Final residual = 1.98186e-05, No Iterations 1
DILUPBiCGStab:  Solving for Uz, Initial residual = 0.00777562, Final residual = 1.74768e-05, No Iterations 1
DICPCG:  Solving for G, Initial residual = 0.000665547, Final residual = 6.29056e-05, No Iterations 18
DILUPBiCGStab:  Solving for h, Initial residual = 0.00207853, Final residual = 8.15858e-07, No Iterations 1
DICPCG:  Solving for p_rgh, Initial residual = 0.00752393, Final residual = 7.1292e-05, No Iterations 20
time step continuity errors : sum local = 1.74245e-06, global = 2.31315e-08, cumulative = 0.000116181
ExecutionTime = 3.67 s  ClockTime = 4 s

Time = 60

DILUPBiCGStab:  Solving for Ux, Initial residual = 0.00810584, Final residual = 2.23746e-05, No Iterations 1
DILUPBiCGStab:  Solving for Uy, Initial residual = 0.00739144, Final residual = 1.94025e-05, No Iterations 1
DILUPBiCGStab:  Solving for Uz, Initial residual = 0.00762, Final residual = 1.7141e-05, No Iterations 1
DICPCG:  Solving for G, Initial residual = 0.000660861, Final residual = 6.19732e-05, No Iterations 18
DILUPBiCGStab:  Solving for h, Initial residual = 0.00206472, Final residual = 8.13663e-07, No Iterations 1
DICPCG:  Solving for p_rgh, Initial residual = 0.00736229, Final residual = 7.27472e-05, No Iterations 21
time step continuity errors : sum local = 1.77092e-06, global = -1.63712e-07, cumulative = 0.000116018
ExecutionTime = 3.73 s  ClockTime = 4 s

Time = 61

DILUPBiCGStab:  Solving for Ux, Initial residual = 0.007924, Final residual = 2.18435e-05, No Iterations 1
DILUPBiCGStab:  Solving for Uy, Initial residual = 0.00724219, Final residual = 1.90075e-05, No Iterations 1
DILUPBiCGStab:  Solving for Uz, Initial residual = 0.00746797, Final residual = 1.68136e-05, No Iterations 1
DICPCG:  Solving for G, Initial residual = 0.000655288, Final residual = 6.22808e-05, No Iterations 18
DILUPBiCGStab:  Solving for h, Initial residual = 0.00205145, Final residual = 8.11591e-07, No Iterations 1
DICPCG:  Solving for p_rgh, Initial residual = 0.00721351, Final residual = 7.1958e-05, No Iterations 19
time step continuity errors : sum local = 1.74498e-06, global = -2.84131e-07, cumulative = 0.000115734
ExecutionTime = 3.8 s  ClockTime = 4 s

Time = 62

DILUPBiCGStab:  Solving for Ux, Initial residual = 0.00775124, Final residual = 2.13395e-05, No Iterations 1
DILUPBiCGStab:  Solving for Uy, Initial residual = 0.00709757, Final residual = 1.86238e-05, No Iterations 1
DILUPBiCGStab:  Solving for Uz, Initial residual = 0.00732066, Final residual = 1.64951e-05, No Iterations 1
DICPCG:  Solving for G, Initial residual = 0.000651216, Final residual = 6.14006e-05, No Iterations 18
DILUPBiCGStab:  Solving for h, Initial residual = 0.00203874, Final residual = 8.0967e-07, No Iterations 1
DICPCG:  Solving for p_rgh, Initial residual = 0.00706765, Final residual = 7.04007e-05, No Iterations 19
time step continuity errors : sum local = 1.70092e-06, global = -3.63104e-07, cumulative = 0.00011537
ExecutionTime = 3.85 s  ClockTime = 4 s

Time = 63

DILUPBiCGStab:  Solving for Ux, Initial residual = 0.00758201, Final residual = 2.08472e-05, No Iterations 1
DILUPBiCGStab:  Solving for Uy, Initial residual = 0.0069581, Final residual = 1.82532e-05, No Iterations 1
DILUPBiCGStab:  Solving for Uz, Initial residual = 0.00717697, Final residual = 1.61908e-05, No Iterations 1
DICPCG:  Solving for G, Initial residual = 0.000646217, Final residual = 6.16153e-05, No Iterations 18
DILUPBiCGStab:  Solving for h, Initial residual = 0.00202649, Final residual = 8.07879e-07, No Iterations 1
DICPCG:  Solving for p_rgh, Initial residual = 0.00692765, Final residual = 6.08334e-05, No Iterations 20
time step continuity errors : sum local = 1.46453e-06, global = -3.93482e-07, cumulative = 0.000114977
ExecutionTime = 3.91 s  ClockTime = 4 s

Time = 64

DILUPBiCGStab:  Solving for Ux, Initial residual = 0.00741796, Final residual = 2.03684e-05, No Iterations 1
DILUPBiCGStab:  Solving for Uy, Initial residual = 0.00682472, Final residual = 1.78983e-05, No Iterations 1
DILUPBiCGStab:  Solving for Uz, Initial residual = 0.00703698, Final residual = 1.58968e-05, No Iterations 1
DICPCG:  Solving for G, Initial residual = 0.000642519, Final residual = 6.14418e-05, No Iterations 18
DILUPBiCGStab:  Solving for h, Initial residual = 0.00201465, Final residual = 8.06192e-07, No Iterations 1
DICPCG:  Solving for p_rgh, Initial residual = 0.00679145, Final residual = 6.74826e-05, No Iterations 19
time step continuity errors : sum local = 1.61898e-06, global = -3.77758e-07, cumulative = 0.000114599
ExecutionTime = 3.97 s  ClockTime = 4 s

Time = 65

DILUPBiCGStab:  Solving for Ux, Initial residual = 0.00726042, Final residual = 1.99071e-05, No Iterations 1
DILUPBiCGStab:  Solving for Uy, Initial residual = 0.00669609, Final residual = 1.75516e-05, No Iterations 1
DILUPBiCGStab:  Solving for Uz, Initial residual = 0.00690124, Final residual = 1.5609e-05, No Iterations 1
DICPCG:  Solving for G, Initial residual = 0.000638025, Final residual = 6.07872e-05, No Iterations 18
DILUPBiCGStab:  Solving for h, Initial residual = 0.00200327, Final residual = 8.04576e-07, No Iterations 1
DICPCG:  Solving for p_rgh, Initial residual = 0.00666316, Final residual = 5.81076e-05, No Iterations 20
time step continuity errors : sum local = 1.3894e-06, global = -3.34577e-07, cumulative = 0.000114265
ExecutionTime = 4.02 s  ClockTime = 4 s

Time = 66

DILUPBiCGStab:  Solving for Ux, Initial residual = 0.00710672, Final residual = 1.94557e-05, No Iterations 1
DILUPBiCGStab:  Solving for Uy, Initial residual = 0.00657204, Final residual = 1.72175e-05, No Iterations 1
DILUPBiCGStab:  Solving for Uz, Initial residual = 0.00676896, Final residual = 1.53305e-05, No Iterations 1
DICPCG:  Solving for G, Initial residual = 0.000634264, Final residual = 6.12058e-05, No Iterations 18
DILUPBiCGStab:  Solving for h, Initial residual = 0.00199229, Final residual = 8.03051e-07, No Iterations 1
DICPCG:  Solving for p_rgh, Initial residual = 0.00653952, Final residual = 5.62826e-05, No Iterations 20
time step continuity errors : sum local = 1.34142e-06, global = -2.68335e-07, cumulative = 0.000113996
ExecutionTime = 4.08 s  ClockTime = 4 s

Time = 67

DILUPBiCGStab:  Solving for Ux, Initial residual = 0.00695753, Final residual = 1.90174e-05, No Iterations 1
DILUPBiCGStab:  Solving for Uy, Initial residual = 0.00645237, Final residual = 1.68946e-05, No Iterations 1
DILUPBiCGStab:  Solving for Uz, Initial residual = 0.00664055, Final residual = 1.506e-05, No Iterations 1
DICPCG:  Solving for G, Initial residual = 0.000630314, Final residual = 6.08013e-05, No Iterations 18
DILUPBiCGStab:  Solving for h, Initial residual = 0.00198166, Final residual = 8.01638e-07, No Iterations 1
DICPCG:  Solving for p_rgh, Initial residual = 0.00641943, Final residual = 6.32254e-05, No Iterations 19
time step continuity errors : sum local = 1.50218e-06, global = -1.84609e-07, cumulative = 0.000113812
ExecutionTime = 4.13 s  ClockTime = 4 s

Time = 68

DILUPBiCGStab:  Solving for Ux, Initial residual = 0.00681306, Final residual = 1.85926e-05, No Iterations 1
DILUPBiCGStab:  Solving for Uy, Initial residual = 0.00633694, Final residual = 1.65812e-05, No Iterations 1
DILUPBiCGStab:  Solving for Uz, Initial residual = 0.00651553, Final residual = 1.47974e-05, No Iterations 1
DICPCG:  Solving for G, Initial residual = 0.000627458, Final residual = 6.10451e-05, No Iterations 18
DILUPBiCGStab:  Solving for h, Initial residual = 0.00197137, Final residual = 8.00302e-07, No Iterations 1
DICPCG:  Solving for p_rgh, Initial residual = 0.00630548, Final residual = 6.17457e-05, No Iterations 19
time step continuity errors : sum local = 1.4626e-06, global = -9.12529e-08, cumulative = 0.00011372
ExecutionTime = 4.18 s  ClockTime = 4 s

Time = 69

DILUPBiCGStab:  Solving for Ux, Initial residual = 0.00667266, Final residual = 1.81795e-05, No Iterations 1
DILUPBiCGStab:  Solving for Uy, Initial residual = 0.0062255, Final residual = 1.6279e-05, No Iterations 1
DILUPBiCGStab:  Solving for Uz, Initial residual = 0.00639359, Final residual = 1.45429e-05, No Iterations 1
DICPCG:  Solving for G, Initial residual = 0.000624166, Final residual = 6.06841e-05, No Iterations 18
DILUPBiCGStab:  Solving for h, Initial residual = 0.00196143, Final residual = 7.98972e-07, No Iterations 1
DICPCG:  Solving for p_rgh, Initial residual = 0.00619463, Final residual = 5.94184e-05, No Iterations 19
time step continuity errors : sum local = 1.40337e-06, global = 1.10383e-08, cumulative = 0.000113731
ExecutionTime = 4.23 s  ClockTime = 4 s

Time = 70

DILUPBiCGStab:  Solving for Ux, Initial residual = 0.00653678, Final residual = 1.77788e-05, No Iterations 1
DILUPBiCGStab:  Solving for Uy, Initial residual = 0.0061177, Final residual = 1.59853e-05, No Iterations 1
DILUPBiCGStab:  Solving for Uz, Initial residual = 0.00627489, Final residual = 1.42956e-05, No Iterations 1
DICPCG:  Solving for G, Initial residual = 0.000621616, Final residual = 6.10037e-05, No Iterations 18
DILUPBiCGStab:  Solving for h, Initial residual = 0.00195184, Final residual = 7.97643e-07, No Iterations 1
DICPCG:  Solving for p_rgh, Initial residual = 0.0060884, Final residual = 5.89345e-05, No Iterations 19
time step continuity errors : sum local = 1.38802e-06, global = 1.18636e-07, cumulative = 0.00011385
ExecutionTime = 4.3 s  ClockTime = 4 s

Time = 71

DILUPBiCGStab:  Solving for Ux, Initial residual = 0.00640533, Final residual = 1.73906e-05, No Iterations 1
DILUPBiCGStab:  Solving for Uy, Initial residual = 0.00601327, Final residual = 1.56999e-05, No Iterations 1
DILUPBiCGStab:  Solving for Uz, Initial residual = 0.00615944, Final residual = 1.40559e-05, No Iterations 1
DICPCG:  Solving for G, Initial residual = 0.00061838, Final residual = 6.07783e-05, No Iterations 18
DILUPBiCGStab:  Solving for h, Initial residual = 0.00194249, Final residual = 7.9635e-07, No Iterations 1
DICPCG:  Solving for p_rgh, Initial residual = 0.00598648, Final residual = 5.06173e-05, No Iterations 20
time step continuity errors : sum local = 1.18887e-06, global = 2.23853e-07, cumulative = 0.000114074
ExecutionTime = 4.36 s  ClockTime = 4 s

Time = 72

DILUPBiCGStab:  Solving for Ux, Initial residual = 0.00627758, Final residual = 1.70128e-05, No Iterations 1
DILUPBiCGStab:  Solving for Uy, Initial residual = 0.00591226, Final residual = 1.5423e-05, No Iterations 1
DILUPBiCGStab:  Solving for Uz, Initial residual = 0.0060468, Final residual = 1.38242e-05, No Iterations 1
DICPCG:  Solving for G, Initial residual = 0.000616032, Final residual = 6.10281e-05, No Iterations 18
DILUPBiCGStab:  Solving for h, Initial residual = 0.00193343, Final residual = 7.95055e-07, No Iterations 1
DICPCG:  Solving for p_rgh, Initial residual = 0.00588978, Final residual = 5.47591e-05, No Iterations 20
time step continuity errors : sum local = 1.28271e-06, global = 3.26475e-07, cumulative = 0.0001144
ExecutionTime = 4.41 s  ClockTime = 4 s

Time = 73

DILUPBiCGStab:  Solving for Ux, Initial residual = 0.00615406, Final residual = 1.66472e-05, No Iterations 1
DILUPBiCGStab:  Solving for Uy, Initial residual = 0.00581432, Final residual = 1.51528e-05, No Iterations 1
DILUPBiCGStab:  Solving for Uz, Initial residual = 0.00593731, Final residual = 1.35972e-05, No Iterations 1
DICPCG:  Solving for G, Initial residual = 0.000613019, Final residual = 6.08601e-05, No Iterations 18
DILUPBiCGStab:  Solving for h, Initial residual = 0.00192463, Final residual = 7.93781e-07, No Iterations 1
DICPCG:  Solving for p_rgh, Initial residual = 0.00579492, Final residual = 5.3331e-05, No Iterations 21
time step continuity errors : sum local = 1.24601e-06, global = 4.17099e-07, cumulative = 0.000114818
ExecutionTime = 4.47 s  ClockTime = 4 s

Time = 74

DILUPBiCGStab:  Solving for Ux, Initial residual = 0.00603376, Final residual = 1.62906e-05, No Iterations 1
DILUPBiCGStab:  Solving for Uy, Initial residual = 0.00571967, Final residual = 1.48911e-05, No Iterations 1
DILUPBiCGStab:  Solving for Uz, Initial residual = 0.00583055, Final residual = 1.33773e-05, No Iterations 1
DICPCG:  Solving for G, Initial residual = 0.000611009, Final residual = 6.10515e-05, No Iterations 18
DILUPBiCGStab:  Solving for h, Initial residual = 0.00191607, Final residual = 7.92483e-07, No Iterations 1
DICPCG:  Solving for p_rgh, Initial residual = 0.00570784, Final residual = 5.37671e-05, No Iterations 49
time step continuity errors : sum local = 1.25303e-06, global = 2.07625e-09, cumulative = 0.00011482
ExecutionTime = 4.54 s  ClockTime = 4 s

Time = 75

DILUPBiCGStab:  Solving for Ux, Initial residual = 0.00591399, Final residual = 1.59432e-05, No Iterations 1
DILUPBiCGStab:  Solving for Uy, Initial residual = 0.00563141, Final residual = 1.46406e-05, No Iterations 1
DILUPBiCGStab:  Solving for Uz, Initial residual = 0.00573238, Final residual = 1.31628e-05, No Iterations 1
DICPCG:  Solving for G, Initial residual = 0.000608227, Final residual = 5.27894e-05, No Iterations 19
DILUPBiCGStab:  Solving for h, Initial residual = 0.00190776, Final residual = 7.91192e-07, No Iterations 1
DICPCG:  Solving for p_rgh, Initial residual = 0.00563195, Final residual = 4.90515e-05, No Iterations 20
time step continuity errors : sum local = 1.14049e-06, global = -1.77084e-07, cumulative = 0.000114642
ExecutionTime = 4.6 s  ClockTime = 4 s

Time = 76

DILUPBiCGStab:  Solving for Ux, Initial residual = 0.00580284, Final residual = 1.56143e-05, No Iterations 1
DILUPBiCGStab:  Solving for Uy, Initial residual = 0.00553788, Final residual = 1.43801e-05, No Iterations 1
DILUPBiCGStab:  Solving for Uz, Initial residual = 0.00562967, Final residual = 1.29551e-05, No Iterations 1
DICPCG:  Solving for G, Initial residual = 0.000604023, Final residual = 5.95184e-05, No Iterations 18
DILUPBiCGStab:  Solving for h, Initial residual = 0.0018997, Final residual = 7.89925e-07, No Iterations 1
DICPCG:  Solving for p_rgh, Initial residual = 0.00553837, Final residual = 5.51286e-05, No Iterations 21
time step continuity errors : sum local = 1.27872e-06, global = -4.29216e-07, cumulative = 0.000114213
ExecutionTime = 4.66 s  ClockTime = 5 s

Time = 77

DILUPBiCGStab:  Solving for Ux, Initial residual = 0.00569398, Final residual = 1.529e-05, No Iterations 1
DILUPBiCGStab:  Solving for Uy, Initial residual = 0.00545144, Final residual = 1.41416e-05, No Iterations 1
DILUPBiCGStab:  Solving for Uz, Initial residual = 0.00552852, Final residual = 1.27533e-05, No Iterations 1
DICPCG:  Solving for G, Initial residual = 0.000604308, Final residual = 5.28407e-05, No Iterations 19
DILUPBiCGStab:  Solving for h, Initial residual = 0.00189181, Final residual = 7.88642e-07, No Iterations 1
DICPCG:  Solving for p_rgh, Initial residual = 0.00545526, Final residual = 5.15193e-05, No Iterations 51
time step continuity errors : sum local = 1.1922e-06, global = -3.48582e-08, cumulative = 0.000114178
ExecutionTime = 4.73 s  ClockTime = 5 s

Time = 78

DILUPBiCGStab:  Solving for Ux, Initial residual = 0.00559166, Final residual = 1.49715e-05, No Iterations 1
DILUPBiCGStab:  Solving for Uy, Initial residual = 0.00536894, Final residual = 1.3923e-05, No Iterations 1
DILUPBiCGStab:  Solving for Uz, Initial residual = 0.0054229, Final residual = 1.25492e-05, No Iterations 1
DICPCG:  Solving for G, Initial residual = 0.000600237, Final residual = 5.94231e-05, No Iterations 18
DILUPBiCGStab:  Solving for h, Initial residual = 0.00188416, Final residual = 7.87337e-07, No Iterations 1
DICPCG:  Solving for p_rgh, Initial residual = 0.0053662, Final residual = 4.88008e-05, No Iterations 21
time step continuity errors : sum local = 1.12653e-06, global = 1.90744e-07, cumulative = 0.000114369
ExecutionTime = 4.79 s  ClockTime = 5 s

Time = 79

DILUPBiCGStab:  Solving for Ux, Initial residual = 0.00548778, Final residual = 1.4669e-05, No Iterations 1
DILUPBiCGStab:  Solving for Uy, Initial residual = 0.00528189, Final residual = 1.36777e-05, No Iterations 1
DILUPBiCGStab:  Solving for Uz, Initial residual = 0.00533156, Final residual = 1.23612e-05, No Iterations 1
DICPCG:  Solving for G, Initial residual = 0.000600064, Final residual = 5.2008e-05, No Iterations 19
DILUPBiCGStab:  Solving for h, Initial residual = 0.00187672, Final residual = 7.86034e-07, No Iterations 1
DICPCG:  Solving for p_rgh, Initial residual = 0.00528559, Final residual = 4.7462e-05, No Iterations 56
time step continuity errors : sum local = 1.09323e-06, global = 1.7318e-08, cumulative = 0.000114386
ExecutionTime = 4.87 s  ClockTime = 5 s

Time = 80

DILUPBiCGStab:  Solving for Ux, Initial residual = 0.00538389, Final residual = 1.4372e-05, No Iterations 1
DILUPBiCGStab:  Solving for Uy, Initial residual = 0.00520665, Final residual = 1.34585e-05, No Iterations 1
DILUPBiCGStab:  Solving for Uz, Initial residual = 0.00524665, Final residual = 1.21746e-05, No Iterations 1
DICPCG:  Solving for G, Initial residual = 0.000596094, Final residual = 5.94506e-05, No Iterations 18
DILUPBiCGStab:  Solving for h, Initial residual = 0.00186947, Final residual = 7.84673e-07, No Iterations 1
DICPCG:  Solving for p_rgh, Initial residual = 0.00522446, Final residual = 4.76163e-05, No Iterations 21
time step continuity errors : sum local = 1.09461e-06, global = 4.07027e-09, cumulative = 0.000114391
ExecutionTime = 4.94 s  ClockTime = 5 s

Time = 81

DILUPBiCGStab:  Solving for Ux, Initial residual = 0.00528933, Final residual = 1.40878e-05, No Iterations 1
DILUPBiCGStab:  Solving for Uy, Initial residual = 0.00512613, Final residual = 1.32347e-05, No Iterations 1
DILUPBiCGStab:  Solving for Uz, Initial residual = 0.00515473, Final residual = 1.19897e-05, No Iterations 1
DICPCG:  Solving for G, Initial residual = 0.000596601, Final residual = 5.21319e-05, No Iterations 19
DILUPBiCGStab:  Solving for h, Initial residual = 0.00186243, Final residual = 7.83311e-07, No Iterations 1
DICPCG:  Solving for p_rgh, Initial residual = 0.00515251, Final residual = 5.12532e-05, No Iterations 21
time step continuity errors : sum local = 1.17574e-06, global = -1.40405e-07, cumulative = 0.00011425
ExecutionTime = 5 s  ClockTime = 5 s

Time = 82

DILUPBiCGStab:  Solving for Ux, Initial residual = 0.00519329, Final residual = 1.37988e-05, No Iterations 1
DILUPBiCGStab:  Solving for Uy, Initial residual = 0.00505154, Final residual = 1.30268e-05, No Iterations 1
DILUPBiCGStab:  Solving for Uz, Initial residual = 0.00506621, Final residual = 1.18112e-05, No Iterations 1
DICPCG:  Solving for G, Initial residual = 0.000593063, Final residual = 5.11276e-05, No Iterations 19
DILUPBiCGStab:  Solving for h, Initial residual = 0.00185555, Final residual = 7.81937e-07, No Iterations 1
DICPCG:  Solving for p_rgh, Initial residual = 0.00507849, Final residual = 4.53686e-05, No Iterations 21
time step continuity errors : sum local = 1.03865e-06, global = -2.37571e-07, cumulative = 0.000114013
ExecutionTime = 5.05 s  ClockTime = 5 s

Time = 83

DILUPBiCGStab:  Solving for Ux, Initial residual = 0.00510026, Final residual = 1.352e-05, No Iterations 1
DILUPBiCGStab:  Solving for Uy, Initial residual = 0.00497851, Final residual = 1.2822e-05, No Iterations 1
DILUPBiCGStab:  Solving for Uz, Initial residual = 0.00498039, Final residual = 1.1637e-05, No Iterations 1
DICPCG:  Solving for G, Initial residual = 0.000590779, Final residual = 5.90505e-05, No Iterations 18
DILUPBiCGStab:  Solving for h, Initial residual = 0.00184882, Final residual = 7.80552e-07, No Iterations 1
DICPCG:  Solving for p_rgh, Initial residual = 0.00500671, Final residual = 4.52088e-05, No Iterations 21
time step continuity errors : sum local = 1.03298e-06, global = -2.88695e-07, cumulative = 0.000113724
ExecutionTime = 5.12 s  ClockTime = 5 s

Time = 84

DILUPBiCGStab:  Solving for Ux, Initial residual = 0.00501121, Final residual = 1.32545e-05, No Iterations 1
DILUPBiCGStab:  Solving for Uy, Initial residual = 0.00490601, Final residual = 1.26181e-05, No Iterations 1
DILUPBiCGStab:  Solving for Uz, Initial residual = 0.00489643, Final residual = 1.14671e-05, No Iterations 1
DICPCG:  Solving for G, Initial residual = 0.000592001, Final residual = 5.29244e-05, No Iterations 19
DILUPBiCGStab:  Solving for h, Initial residual = 0.00184227, Final residual = 7.79135e-07, No Iterations 1
DICPCG:  Solving for p_rgh, Initial residual = 0.00493938, Final residual = 4.671e-05, No Iterations 21
time step continuity errors : sum local = 1.06529e-06, global = -2.9574e-07, cumulative = 0.000113428
ExecutionTime = 5.19 s  ClockTime = 5 s

Time = 85

DILUPBiCGStab:  Solving for Ux, Initial residual = 0.00492503, Final residual = 1.29975e-05, No Iterations 1
DILUPBiCGStab:  Solving for Uy, Initial residual = 0.00483515, Final residual = 1.24189e-05, No Iterations 1
DILUPBiCGStab:  Solving for Uz, Initial residual = 0.00481441, Final residual = 1.13018e-05, No Iterations 1
DICPCG:  Solving for G, Initial residual = 0.000588236, Final residual = 5.12684e-05, No Iterations 19
DILUPBiCGStab:  Solving for h, Initial residual = 0.00183594, Final residual = 7.77689e-07, No Iterations 1
DICPCG:  Solving for p_rgh, Initial residual = 0.00487489, Final residual = 4.46801e-05, No Iterations 21
time step continuity errors : sum local = 1.01716e-06, global = -2.66832e-07, cumulative = 0.000113161
ExecutionTime = 5.24 s  ClockTime = 5 s

Time = 86

DILUPBiCGStab:  Solving for Ux, Initial residual = 0.00484083, Final residual = 1.27462e-05, No Iterations 1
DILUPBiCGStab:  Solving for Uy, Initial residual = 0.00476635, Final residual = 1.22251e-05, No Iterations 1
DILUPBiCGStab:  Solving for Uz, Initial residual = 0.0047345, Final residual = 1.11409e-05, No Iterations 1
DICPCG:  Solving for G, Initial residual = 0.000586616, Final residual = 5.14539e-05, No Iterations 19
DILUPBiCGStab:  Solving for h, Initial residual = 0.0018298, Final residual = 7.76208e-07, No Iterations 1
DICPCG:  Solving for p_rgh, Initial residual = 0.00481284, Final residual = 4.14023e-05, No Iterations 21
time step continuity errors : sum local = 9.40891e-07, global = -2.14065e-07, cumulative = 0.000112947
ExecutionTime = 5.31 s  ClockTime = 5 s

Time = 87

DILUPBiCGStab:  Solving for Ux, Initial residual = 0.0047583, Final residual = 1.24996e-05, No Iterations 1
DILUPBiCGStab:  Solving for Uy, Initial residual = 0.00469942, Final residual = 1.2036e-05, No Iterations 1
DILUPBiCGStab:  Solving for Uz, Initial residual = 0.00465669, Final residual = 1.0985e-05, No Iterations 1
DICPCG:  Solving for G, Initial residual = 0.000585522, Final residual = 5.14481e-05, No Iterations 19
DILUPBiCGStab:  Solving for h, Initial residual = 0.00182382, Final residual = 7.74694e-07, No Iterations 1
DICPCG:  Solving for p_rgh, Initial residual = 0.00475368, Final residual = 3.92037e-05, No Iterations 21
time step continuity errors : sum local = 8.8942e-07, global = -1.47773e-07, cumulative = 0.000112799
ExecutionTime = 5.37 s  ClockTime = 5 s

Time = 88

DILUPBiCGStab:  Solving for Ux, Initial residual = 0.00467768, Final residual = 1.22587e-05, No Iterations 1
DILUPBiCGStab:  Solving for Uy, Initial residual = 0.004634, Final residual = 1.18503e-05, No Iterations 1
DILUPBiCGStab:  Solving for Uz, Initial residual = 0.00458088, Final residual = 1.08324e-05, No Iterations 1
DICPCG:  Solving for G, Initial residual = 0.000584273, Final residual = 5.1693e-05, No Iterations 19
DILUPBiCGStab:  Solving for h, Initial residual = 0.00181798, Final residual = 7.73116e-07, No Iterations 1
DICPCG:  Solving for p_rgh, Initial residual = 0.00469704, Final residual = 4.60289e-05, No Iterations 20
time step continuity errors : sum local = 1.04254e-06, global = -7.23989e-08, cumulative = 0.000112727
ExecutionTime = 5.43 s  ClockTime = 5 s

Time = 89

DILUPBiCGStab:  Solving for Ux, Initial residual = 0.00459931, Final residual = 1.2025e-05, No Iterations 1
DILUPBiCGStab:  Solving for Uy, Initial residual = 0.00456998, Final residual = 1.16683e-05, No Iterations 1
DILUPBiCGStab:  Solving for Uz, Initial residual = 0.00450698, Final residual = 1.06824e-05, No Iterations 1
DICPCG:  Solving for G, Initial residual = 0.00058311, Final residual = 5.14215e-05, No Iterations 19
DILUPBiCGStab:  Solving for h, Initial residual = 0.00181225, Final residual = 7.71463e-07, No Iterations 1
DICPCG:  Solving for p_rgh, Initial residual = 0.00464024, Final residual = 3.76398e-05, No Iterations 21
time step continuity errors : sum local = 8.51162e-07, global = 7.33452e-09, cumulative = 0.000112734
ExecutionTime = 5.49 s  ClockTime = 5 s

Time = 90

DILUPBiCGStab:  Solving for Ux, Initial residual = 0.00452249, Final residual = 1.17953e-05, No Iterations 1
DILUPBiCGStab:  Solving for Uy, Initial residual = 0.0045078, Final residual = 1.14913e-05, No Iterations 1
DILUPBiCGStab:  Solving for Uz, Initial residual = 0.00443479, Final residual = 1.05356e-05, No Iterations 1
DICPCG:  Solving for G, Initial residual = 0.000581933, Final residual = 5.15683e-05, No Iterations 19
DILUPBiCGStab:  Solving for h, Initial residual = 0.00180665, Final residual = 7.69779e-07, No Iterations 1
DICPCG:  Solving for p_rgh, Initial residual = 0.00458727, Final residual = 3.82415e-05, No Iterations 21
time step continuity errors : sum local = 8.63408e-07, global = 9.08231e-08, cumulative = 0.000112825
ExecutionTime = 5.56 s  ClockTime = 5 s

Time = 91

DILUPBiCGStab:  Solving for Ux, Initial residual = 0.00444811, Final residual = 1.15739e-05, No Iterations 1
DILUPBiCGStab:  Solving for Uy, Initial residual = 0.00444674, Final residual = 1.1317e-05, No Iterations 1
DILUPBiCGStab:  Solving for Uz, Initial residual = 0.00436435, Final residual = 1.03916e-05, No Iterations 1
DICPCG:  Solving for G, Initial residual = 0.000580972, Final residual = 5.12959e-05, No Iterations 19
DILUPBiCGStab:  Solving for h, Initial residual = 0.00180116, Final residual = 7.68089e-07, No Iterations 1
DICPCG:  Solving for p_rgh, Initial residual = 0.00453474, Final residual = 4.01858e-05, No Iterations 21
time step continuity errors : sum local = 9.05921e-07, global = 1.73421e-07, cumulative = 0.000112999
ExecutionTime = 5.63 s  ClockTime = 6 s

Time = 92

DILUPBiCGStab:  Solving for Ux, Initial residual = 0.00437561, Final residual = 1.1358e-05, No Iterations 1
DILUPBiCGStab:  Solving for Uy, Initial residual = 0.00438697, Final residual = 1.11463e-05, No Iterations 1
DILUPBiCGStab:  Solving for Uz, Initial residual = 0.00429559, Final residual = 1.02508e-05, No Iterations 1
DICPCG:  Solving for G, Initial residual = 0.000579957, Final residual = 5.15891e-05, No Iterations 19
DILUPBiCGStab:  Solving for h, Initial residual = 0.00179577, Final residual = 7.66336e-07, No Iterations 1
DICPCG:  Solving for p_rgh, Initial residual = 0.00448312, Final residual = 4.28447e-05, No Iterations 21
time step continuity errors : sum local = 9.64432e-07, global = 2.50925e-07, cumulative = 0.00011325
ExecutionTime = 5.7 s  ClockTime = 6 s

Time = 93

DILUPBiCGStab:  Solving for Ux, Initial residual = 0.00430473, Final residual = 1.11469e-05, No Iterations 1
DILUPBiCGStab:  Solving for Uy, Initial residual = 0.00432855, Final residual = 1.09795e-05, No Iterations 1
DILUPBiCGStab:  Solving for Uz, Initial residual = 0.00422849, Final residual = 1.01137e-05, No Iterations 1
DICPCG:  Solving for G, Initial residual = 0.000578975, Final residual = 5.10046e-05, No Iterations 19
DILUPBiCGStab:  Solving for h, Initial residual = 0.00179047, Final residual = 7.64571e-07, No Iterations 1
DICPCG:  Solving for p_rgh, Initial residual = 0.00443333, Final residual = 4.17593e-05, No Iterations 22
time step continuity errors : sum local = 9.38647e-07, global = 3.19862e-07, cumulative = 0.000113569
ExecutionTime = 5.76 s  ClockTime = 6 s

Time = 94

DILUPBiCGStab:  Solving for Ux, Initial residual = 0.0042352, Final residual = 1.09392e-05, No Iterations 1
DILUPBiCGStab:  Solving for Uy, Initial residual = 0.00427162, Final residual = 1.0818e-05, No Iterations 1
DILUPBiCGStab:  Solving for Uz, Initial residual = 0.0041631, Final residual = 9.98085e-06, No Iterations 1
DICPCG:  Solving for G, Initial residual = 0.000578123, Final residual = 5.14543e-05, No Iterations 19
DILUPBiCGStab:  Solving for h, Initial residual = 0.00178529, Final residual = 7.6279e-07, No Iterations 1
DICPCG:  Solving for p_rgh, Initial residual = 0.00438611, Final residual = 4.17836e-05, No Iterations 50
time step continuity errors : sum local = 9.37876e-07, global = 2.43511e-08, cumulative = 0.000113594
ExecutionTime = 5.83 s  ClockTime = 6 s

Time = 95

DILUPBiCGStab:  Solving for Ux, Initial residual = 0.00416719, Final residual = 1.07447e-05, No Iterations 1
DILUPBiCGStab:  Solving for Uy, Initial residual = 0.00421795, Final residual = 1.06601e-05, No Iterations 1
DILUPBiCGStab:  Solving for Uz, Initial residual = 0.00410312, Final residual = 9.85101e-06, No Iterations 1
DICPCG:  Solving for G, Initial residual = 0.000577238, Final residual = 5.07906e-05, No Iterations 19
DILUPBiCGStab:  Solving for h, Initial residual = 0.00178023, Final residual = 7.60976e-07, No Iterations 1
DICPCG:  Solving for p_rgh, Initial residual = 0.00435014, Final residual = 4.07871e-05, No Iterations 21
time step continuity errors : sum local = 9.14336e-07, global = -1.33089e-07, cumulative = 0.000113461
ExecutionTime = 5.88 s  ClockTime = 6 s

Time = 96

DILUPBiCGStab:  Solving for Ux, Initial residual = 0.00410074, Final residual = 1.05445e-05, No Iterations 1
DILUPBiCGStab:  Solving for Uy, Initial residual = 0.00415959, Final residual = 1.04929e-05, No Iterations 1
DILUPBiCGStab:  Solving for Uz, Initial residual = 0.00404093, Final residual = 9.72667e-06, No Iterations 1
DICPCG:  Solving for G, Initial residual = 0.000576497, Final residual = 5.13001e-05, No Iterations 19
DILUPBiCGStab:  Solving for h, Initial residual = 0.00177527, Final residual = 7.59125e-07, No Iterations 1
DICPCG:  Solving for p_rgh, Initial residual = 0.00430153, Final residual = 4.20433e-05, No Iterations 55
time step continuity errors : sum local = 9.41215e-07, global = -1.97602e-08, cumulative = 0.000113441
ExecutionTime = 5.95 s  ClockTime = 6 s

Time = 97

DILUPBiCGStab:  Solving for Ux, Initial residual = 0.00403643, Final residual = 1.03412e-05, No Iterations 1
DILUPBiCGStab:  Solving for Uy, Initial residual = 0.00410784, Final residual = 1.035e-05, No Iterations 1
DILUPBiCGStab:  Solving for Uz, Initial residual = 0.00397496, Final residual = 9.59714e-06, No Iterations 1
DICPCG:  Solving for G, Initial residual = 0.000575724, Final residual = 5.0938e-05, No Iterations 19
DILUPBiCGStab:  Solving for h, Initial residual = 0.00177042, Final residual = 7.57219e-07, No Iterations 1
DICPCG:  Solving for p_rgh, Initial residual = 0.00424868, Final residual = 3.99714e-05, No Iterations 22
time step continuity errors : sum local = 8.93571e-07, global = 2.43273e-08, cumulative = 0.000113465
[...]
DICPCG:  Solving for G, Initial residual = 1.01254e-05, Final residual = 8.49626e-07, No Iterations 22
DILUPBiCGStab:  Solving for h, Initial residual = 3.20725e-05, Final residual = 3.03292e-07, No Iterations 1
DICPCG:  Solving for p_rgh, Initial residual = 1.60135e-05, Final residual = 9.37044e-07, No Iterations 19
time step continuity errors : sum local = 2.18993e-08, global = -2.09148e-09, cumulative = 0.000117135
ExecutionTime = 143.19 s  ClockTime = 144 s

Time = 2281

DILUPBiCGStab:  Solving for Ux, Initial residual = 1.0273e-05, Final residual = 3.58034e-07, No Iterations 1
DILUPBiCGStab:  Solving for Uy, Initial residual = 1.57703e-05, Final residual = 6.01951e-07, No Iterations 1
DILUPBiCGStab:  Solving for Uz, Initial residual = 2.3943e-05, Final residual = 8.15977e-07, No Iterations 1
DICPCG:  Solving for G, Initial residual = 1.01194e-05, Final residual = 8.53804e-07, No Iterations 22
DILUPBiCGStab:  Solving for h, Initial residual = 3.20524e-05, Final residual = 3.03112e-07, No Iterations 1
DICPCG:  Solving for p_rgh, Initial residual = 1.6007e-05, Final residual = 9.51575e-07, No Iterations 19
time step continuity errors : sum local = 2.2239e-08, global = -2.05608e-09, cumulative = 0.000117133
ExecutionTime = 143.24 s  ClockTime = 144 s

Time = 2282

DILUPBiCGStab:  Solving for Ux, Initial residual = 1.02697e-05, Final residual = 3.57898e-07, No Iterations 1
DILUPBiCGStab:  Solving for Uy, Initial residual = 1.57617e-05, Final residual = 6.01463e-07, No Iterations 1
DILUPBiCGStab:  Solving for Uz, Initial residual = 2.39272e-05, Final residual = 8.15468e-07, No Iterations 1
DICPCG:  Solving for G, Initial residual = 1.01146e-05, Final residual = 8.48656e-07, No Iterations 22
DILUPBiCGStab:  Solving for h, Initial residual = 3.20324e-05, Final residual = 3.02933e-07, No Iterations 1
DICPCG:  Solving for p_rgh, Initial residual = 1.60046e-05, Final residual = 9.57044e-07, No Iterations 19
time step continuity errors : sum local = 2.23668e-08, global = -2.02156e-09, cumulative = 0.000117131
ExecutionTime = 143.31 s  ClockTime = 144 s

Time = 2283

DILUPBiCGStab:  Solving for Ux, Initial residual = 1.02658e-05, Final residual = 3.57727e-07, No Iterations 1
DILUPBiCGStab:  Solving for Uy, Initial residual = 1.57529e-05, Final residual = 6.00951e-07, No Iterations 1
DILUPBiCGStab:  Solving for Uz, Initial residual = 2.39111e-05, Final residual = 8.14959e-07, No Iterations 1
DICPCG:  Solving for G, Initial residual = 1.01085e-05, Final residual = 8.52827e-07, No Iterations 22
DILUPBiCGStab:  Solving for h, Initial residual = 3.20123e-05, Final residual = 3.02753e-07, No Iterations 1
DICPCG:  Solving for p_rgh, Initial residual = 1.59907e-05, Final residual = 9.42581e-07, No Iterations 19
time step continuity errors : sum local = 2.20289e-08, global = -1.98551e-09, cumulative = 0.000117129
ExecutionTime = 143.36 s  ClockTime = 144 s

Time = 2284

DILUPBiCGStab:  Solving for Ux, Initial residual = 1.02619e-05, Final residual = 3.57572e-07, No Iterations 1
DILUPBiCGStab:  Solving for Uy, Initial residual = 1.57441e-05, Final residual = 6.00446e-07, No Iterations 1
DILUPBiCGStab:  Solving for Uz, Initial residual = 2.3895e-05, Final residual = 8.14456e-07, No Iterations 1
DICPCG:  Solving for G, Initial residual = 1.01037e-05, Final residual = 8.47686e-07, No Iterations 22
DILUPBiCGStab:  Solving for h, Initial residual = 3.19923e-05, Final residual = 3.02573e-07, No Iterations 1
DICPCG:  Solving for p_rgh, Initial residual = 1.59821e-05, Final residual = 9.2577e-07, No Iterations 19
time step continuity errors : sum local = 2.16361e-08, global = -1.94932e-09, cumulative = 0.000117127
ExecutionTime = 143.42 s  ClockTime = 144 s

Time = 2285

DILUPBiCGStab:  Solving for Ux, Initial residual = 1.02585e-05, Final residual = 3.57448e-07, No Iterations 1
DILUPBiCGStab:  Solving for Uy, Initial residual = 1.57356e-05, Final residual = 5.99978e-07, No Iterations 1
DILUPBiCGStab:  Solving for Uz, Initial residual = 2.38792e-05, Final residual = 8.13947e-07, No Iterations 1
DICPCG:  Solving for G, Initial residual = 1.00976e-05, Final residual = 8.51851e-07, No Iterations 22
DILUPBiCGStab:  Solving for h, Initial residual = 3.19723e-05, Final residual = 3.02394e-07, No Iterations 1
DICPCG:  Solving for p_rgh, Initial residual = 1.59693e-05, Final residual = 9.25594e-07, No Iterations 19
time step continuity errors : sum local = 2.1632e-08, global = -1.91441e-09, cumulative = 0.000117125
ExecutionTime = 143.48 s  ClockTime = 144 s

Time = 2286

DILUPBiCGStab:  Solving for Ux, Initial residual = 1.02547e-05, Final residual = 3.57323e-07, No Iterations 1
DILUPBiCGStab:  Solving for Uy, Initial residual = 1.57274e-05, Final residual = 5.99558e-07, No Iterations 1
DILUPBiCGStab:  Solving for Uz, Initial residual = 2.38634e-05, Final residual = 8.13429e-07, No Iterations 1
DICPCG:  Solving for G, Initial residual = 1.00928e-05, Final residual = 8.46715e-07, No Iterations 22
DILUPBiCGStab:  Solving for h, Initial residual = 3.19523e-05, Final residual = 3.02215e-07, No Iterations 1
DICPCG:  Solving for p_rgh, Initial residual = 1.5966e-05, Final residual = 9.42176e-07, No Iterations 19
time step continuity errors : sum local = 2.20196e-08, global = -1.88253e-09, cumulative = 0.000117123
ExecutionTime = 143.54 s  ClockTime = 144 s

Time = 2287

DILUPBiCGStab:  Solving for Ux, Initial residual = 1.02508e-05, Final residual = 3.57149e-07, No Iterations 1
DILUPBiCGStab:  Solving for Uy, Initial residual = 1.57193e-05, Final residual = 5.99095e-07, No Iterations 1
DILUPBiCGStab:  Solving for Uz, Initial residual = 2.38477e-05, Final residual = 8.12928e-07, No Iterations 1
DICPCG:  Solving for G, Initial residual = 1.00868e-05, Final residual = 8.50875e-07, No Iterations 22
DILUPBiCGStab:  Solving for h, Initial residual = 3.19323e-05, Final residual = 3.02035e-07, No Iterations 1
DICPCG:  Solving for p_rgh, Initial residual = 1.59646e-05, Final residual = 9.51335e-07, No Iterations 19
time step continuity errors : sum local = 2.22338e-08, global = -1.8507e-09, cumulative = 0.000117122
ExecutionTime = 143.59 s  ClockTime = 145 s

Time = 2288

DILUPBiCGStab:  Solving for Ux, Initial residual = 1.02467e-05, Final residual = 3.56968e-07, No Iterations 1
DILUPBiCGStab:  Solving for Uy, Initial residual = 1.57109e-05, Final residual = 5.9859e-07, No Iterations 1
DILUPBiCGStab:  Solving for Uz, Initial residual = 2.38318e-05, Final residual = 8.12426e-07, No Iterations 1
DICPCG:  Solving for G, Initial residual = 1.0082e-05, Final residual = 8.45745e-07, No Iterations 22
DILUPBiCGStab:  Solving for h, Initial residual = 3.19124e-05, Final residual = 3.01856e-07, No Iterations 1
DICPCG:  Solving for p_rgh, Initial residual = 1.59492e-05, Final residual = 9.38591e-07, No Iterations 19
time step continuity errors : sum local = 2.1936e-08, global = -1.81576e-09, cumulative = 0.00011712
ExecutionTime = 143.65 s  ClockTime = 145 s

Time = 2289

DILUPBiCGStab:  Solving for Ux, Initial residual = 1.0243e-05, Final residual = 3.5682e-07, No Iterations 1
DILUPBiCGStab:  Solving for Uy, Initial residual = 1.57025e-05, Final residual = 5.98095e-07, No Iterations 1
DILUPBiCGStab:  Solving for Uz, Initial residual = 2.3816e-05, Final residual = 8.11931e-07, No Iterations 1
DICPCG:  Solving for G, Initial residual = 1.00759e-05, Final residual = 8.499e-07, No Iterations 22
DILUPBiCGStab:  Solving for h, Initial residual = 3.18924e-05, Final residual = 3.01677e-07, No Iterations 1
DICPCG:  Solving for p_rgh, Initial residual = 1.59396e-05, Final residual = 9.19829e-07, No Iterations 19
time step continuity errors : sum local = 2.14976e-08, global = -1.77929e-09, cumulative = 0.000117118
ExecutionTime = 143.71 s  ClockTime = 145 s

Time = 2290

DILUPBiCGStab:  Solving for Ux, Initial residual = 1.02394e-05, Final residual = 3.56703e-07, No Iterations 1
DILUPBiCGStab:  Solving for Uy, Initial residual = 1.56943e-05, Final residual = 5.97647e-07, No Iterations 1
DILUPBiCGStab:  Solving for Uz, Initial residual = 2.38005e-05, Final residual = 8.11426e-07, No Iterations 1
DICPCG:  Solving for G, Initial residual = 1.00711e-05, Final residual = 8.44776e-07, No Iterations 22
DILUPBiCGStab:  Solving for h, Initial residual = 3.18725e-05, Final residual = 3.01498e-07, No Iterations 1
DICPCG:  Solving for p_rgh, Initial residual = 1.59276e-05, Final residual = 9.35119e-07, No Iterations 19
time step continuity errors : sum local = 2.1855e-08, global = -1.7458e-09, cumulative = 0.000117116
ExecutionTime = 143.78 s  ClockTime = 145 s

Time = 2291

DILUPBiCGStab:  Solving for Ux, Initial residual = 1.02356e-05, Final residual = 3.56551e-07, No Iterations 1
DILUPBiCGStab:  Solving for Uy, Initial residual = 1.56868e-05, Final residual = 5.97226e-07, No Iterations 1
DILUPBiCGStab:  Solving for Uz, Initial residual = 2.3785e-05, Final residual = 8.10925e-07, No Iterations 1
DICPCG:  Solving for G, Initial residual = 1.00651e-05, Final residual = 8.48924e-07, No Iterations 22
DILUPBiCGStab:  Solving for h, Initial residual = 3.18525e-05, Final residual = 3.0132e-07, No Iterations 1
DICPCG:  Solving for p_rgh, Initial residual = 1.59233e-05, Final residual = 9.23712e-07, No Iterations 19
time step continuity errors : sum local = 2.15885e-08, global = -1.71312e-09, cumulative = 0.000117115
ExecutionTime = 143.83 s  ClockTime = 145 s

Time = 2292

DILUPBiCGStab:  Solving for Ux, Initial residual = 1.02311e-05, Final residual = 3.56375e-07, No Iterations 1
DILUPBiCGStab:  Solving for Uy, Initial residual = 1.56789e-05, Final residual = 5.96775e-07, No Iterations 1
DILUPBiCGStab:  Solving for Uz, Initial residual = 2.37692e-05, Final residual = 8.10422e-07, No Iterations 1
DICPCG:  Solving for G, Initial residual = 1.00603e-05, Final residual = 8.43805e-07, No Iterations 22
DILUPBiCGStab:  Solving for h, Initial residual = 3.18326e-05, Final residual = 3.01141e-07, No Iterations 1
DICPCG:  Solving for p_rgh, Initial residual = 1.59157e-05, Final residual = 9.38866e-07, No Iterations 19
time step continuity errors : sum local = 2.19427e-08, global = -1.68126e-09, cumulative = 0.000117113
ExecutionTime = 143.9 s  ClockTime = 145 s

Time = 2293

DILUPBiCGStab:  Solving for Ux, Initial residual = 1.02274e-05, Final residual = 3.56223e-07, No Iterations 1
DILUPBiCGStab:  Solving for Uy, Initial residual = 1.56712e-05, Final residual = 5.96336e-07, No Iterations 1
DILUPBiCGStab:  Solving for Uz, Initial residual = 2.37537e-05, Final residual = 8.09923e-07, No Iterations 1
DICPCG:  Solving for G, Initial residual = 1.00543e-05, Final residual = 8.47949e-07, No Iterations 22
DILUPBiCGStab:  Solving for h, Initial residual = 3.18127e-05, Final residual = 3.00963e-07, No Iterations 1
DICPCG:  Solving for p_rgh, Initial residual = 1.59109e-05, Final residual = 9.40351e-07, No Iterations 19
time step continuity errors : sum local = 2.19775e-08, global = -1.64831e-09, cumulative = 0.000117111
ExecutionTime = 143.96 s  ClockTime = 145 s

Time = 2294

DILUPBiCGStab:  Solving for Ux, Initial residual = 1.02233e-05, Final residual = 3.56055e-07, No Iterations 1
DILUPBiCGStab:  Solving for Uy, Initial residual = 1.56633e-05, Final residual = 5.95859e-07, No Iterations 1
DILUPBiCGStab:  Solving for Uz, Initial residual = 2.37382e-05, Final residual = 8.09431e-07, No Iterations 1
DICPCG:  Solving for G, Initial residual = 1.00495e-05, Final residual = 8.42836e-07, No Iterations 22
DILUPBiCGStab:  Solving for h, Initial residual = 3.17928e-05, Final residual = 3.00784e-07, No Iterations 1
DICPCG:  Solving for p_rgh, Initial residual = 1.58972e-05, Final residual = 9.21359e-07, No Iterations 19
time step continuity errors : sum local = 2.15337e-08, global = -1.61288e-09, cumulative = 0.00011711
ExecutionTime = 144.02 s  ClockTime = 145 s

Time = 2295

DILUPBiCGStab:  Solving for Ux, Initial residual = 1.02194e-05, Final residual = 3.55916e-07, No Iterations 1
DILUPBiCGStab:  Solving for Uy, Initial residual = 1.56555e-05, Final residual = 5.95419e-07, No Iterations 1
DILUPBiCGStab:  Solving for Uz, Initial residual = 2.37226e-05, Final residual = 8.08936e-07, No Iterations 1
DICPCG:  Solving for G, Initial residual = 1.00435e-05, Final residual = 8.46974e-07, No Iterations 22
DILUPBiCGStab:  Solving for h, Initial residual = 3.1773e-05, Final residual = 3.00606e-07, No Iterations 1
DICPCG:  Solving for p_rgh, Initial residual = 1.58912e-05, Final residual = 9.33368e-07, No Iterations 19
time step continuity errors : sum local = 2.18144e-08, global = -1.5791e-09, cumulative = 0.000117108
ExecutionTime = 144.08 s  ClockTime = 145 s

Time = 2296

DILUPBiCGStab:  Solving for Ux, Initial residual = 1.02156e-05, Final residual = 3.55769e-07, No Iterations 1
DILUPBiCGStab:  Solving for Uy, Initial residual = 1.56481e-05, Final residual = 5.95007e-07, No Iterations 1
DILUPBiCGStab:  Solving for Uz, Initial residual = 2.37073e-05, Final residual = 8.08442e-07, No Iterations 1
DICPCG:  Solving for G, Initial residual = 1.00387e-05, Final residual = 8.41867e-07, No Iterations 22
DILUPBiCGStab:  Solving for h, Initial residual = 3.17531e-05, Final residual = 3.00427e-07, No Iterations 1
DICPCG:  Solving for p_rgh, Initial residual = 1.58863e-05, Final residual = 9.34239e-07, No Iterations 19
time step continuity errors : sum local = 2.18348e-08, global = -1.54638e-09, cumulative = 0.000117106
ExecutionTime = 144.13 s  ClockTime = 145 s

Time = 2297

DILUPBiCGStab:  Solving for Ux, Initial residual = 1.02112e-05, Final residual = 3.55584e-07, No Iterations 1
DILUPBiCGStab:  Solving for Uy, Initial residual = 1.56406e-05, Final residual = 5.94558e-07, No Iterations 1
DILUPBiCGStab:  Solving for Uz, Initial residual = 2.36918e-05, Final residual = 8.07951e-07, No Iterations 1
DICPCG:  Solving for G, Initial residual = 1.00327e-05, Final residual = 8.45998e-07, No Iterations 22
DILUPBiCGStab:  Solving for h, Initial residual = 3.17332e-05, Final residual = 3.00249e-07, No Iterations 1
DICPCG:  Solving for p_rgh, Initial residual = 1.58724e-05, Final residual = 9.16904e-07, No Iterations 19
time step continuity errors : sum local = 2.14298e-08, global = -1.51199e-09, cumulative = 0.000117105
ExecutionTime = 144.19 s  ClockTime = 145 s

Time = 2298

DILUPBiCGStab:  Solving for Ux, Initial residual = 1.02071e-05, Final residual = 3.55434e-07, No Iterations 1
DILUPBiCGStab:  Solving for Uy, Initial residual = 1.56331e-05, Final residual = 5.94138e-07, No Iterations 1
DILUPBiCGStab:  Solving for Uz, Initial residual = 2.36762e-05, Final residual = 8.07457e-07, No Iterations 1
DICPCG:  Solving for G, Initial residual = 1.00279e-05, Final residual = 8.40898e-07, No Iterations 22
DILUPBiCGStab:  Solving for h, Initial residual = 3.17134e-05, Final residual = 3.00071e-07, No Iterations 1
DICPCG:  Solving for p_rgh, Initial residual = 1.58657e-05, Final residual = 9.29891e-07, No Iterations 19
time step continuity errors : sum local = 2.17334e-08, global = -1.47867e-09, cumulative = 0.000117103
ExecutionTime = 144.26 s  ClockTime = 145 s

Time = 2299

DILUPBiCGStab:  Solving for Ux, Initial residual = 1.02033e-05, Final residual = 3.55287e-07, No Iterations 1
DILUPBiCGStab:  Solving for Uy, Initial residual = 1.56259e-05, Final residual = 5.93736e-07, No Iterations 1
DILUPBiCGStab:  Solving for Uz, Initial residual = 2.36611e-05, Final residual = 8.06967e-07, No Iterations 1
DICPCG:  Solving for G, Initial residual = 1.00219e-05, Final residual = 8.45022e-07, No Iterations 22
DILUPBiCGStab:  Solving for h, Initial residual = 3.16935e-05, Final residual = 2.99894e-07, No Iterations 1
DICPCG:  Solving for p_rgh, Initial residual = 1.5861e-05, Final residual = 9.31559e-07, No Iterations 19
time step continuity errors : sum local = 2.17724e-08, global = -1.44576e-09, cumulative = 0.000117102
ExecutionTime = 144.31 s  ClockTime = 145 s

Time = 2300

DILUPBiCGStab:  Solving for Ux, Initial residual = 1.01989e-05, Final residual = 3.55104e-07, No Iterations 1
DILUPBiCGStab:  Solving for Uy, Initial residual = 1.56185e-05, Final residual = 5.93297e-07, No Iterations 1
DILUPBiCGStab:  Solving for Uz, Initial residual = 2.36457e-05, Final residual = 8.06479e-07, No Iterations 1
DICPCG:  Solving for G, Initial residual = 1.00172e-05, Final residual = 8.39929e-07, No Iterations 22
DILUPBiCGStab:  Solving for h, Initial residual = 3.16737e-05, Final residual = 2.99716e-07, No Iterations 1
DICPCG:  Solving for p_rgh, Initial residual = 1.58474e-05, Final residual = 9.14403e-07, No Iterations 19
time step continuity errors : sum local = 2.13715e-08, global = -1.41092e-09, cumulative = 0.000117101
ExecutionTime = 144.38 s  ClockTime = 145 s

Time = 2301

DILUPBiCGStab:  Solving for Ux, Initial residual = 1.01947e-05, Final residual = 3.54949e-07, No Iterations 1
DILUPBiCGStab:  Solving for Uy, Initial residual = 1.56111e-05, Final residual = 5.92882e-07, No Iterations 1
DILUPBiCGStab:  Solving for Uz, Initial residual = 2.36303e-05, Final residual = 8.0599e-07, No Iterations 1
DICPCG:  Solving for G, Initial residual = 1.00112e-05, Final residual = 8.44048e-07, No Iterations 22
DILUPBiCGStab:  Solving for h, Initial residual = 3.16539e-05, Final residual = 2.99539e-07, No Iterations 1
DICPCG:  Solving for p_rgh, Initial residual = 1.58406e-05, Final residual = 9.26589e-07, No Iterations 19
time step continuity errors : sum local = 2.16564e-08, global = -1.37724e-09, cumulative = 0.000117099
ExecutionTime = 144.44 s  ClockTime = 145 s

Time = 2302

DILUPBiCGStab:  Solving for Ux, Initial residual = 1.01909e-05, Final residual = 3.54801e-07, No Iterations 1
DILUPBiCGStab:  Solving for Uy, Initial residual = 1.56041e-05, Final residual = 5.92492e-07, No Iterations 1
DILUPBiCGStab:  Solving for Uz, Initial residual = 2.36152e-05, Final residual = 8.05502e-07, No Iterations 1
DICPCG:  Solving for G, Initial residual = 1.00065e-05, Final residual = 8.38962e-07, No Iterations 22
DILUPBiCGStab:  Solving for h, Initial residual = 3.16341e-05, Final residual = 2.99362e-07, No Iterations 1
DICPCG:  Solving for p_rgh, Initial residual = 1.5835e-05, Final residual = 9.24412e-07, No Iterations 19
time step continuity errors : sum local = 2.16056e-08, global = -1.34408e-09, cumulative = 0.000117098
ExecutionTime = 144.51 s  ClockTime = 145 s

Time = 2303

DILUPBiCGStab:  Solving for Ux, Initial residual = 1.01864e-05, Final residual = 3.54618e-07, No Iterations 1
DILUPBiCGStab:  Solving for Uy, Initial residual = 1.55969e-05, Final residual = 5.92064e-07, No Iterations 1
DILUPBiCGStab:  Solving for Uz, Initial residual = 2.35999e-05, Final residual = 8.05018e-07, No Iterations 1
DICPCG:  Solving for G, Initial residual = 1.00004e-05, Final residual = 8.43073e-07, No Iterations 22
DILUPBiCGStab:  Solving for h, Initial residual = 3.16143e-05, Final residual = 2.99185e-07, No Iterations 1
DICPCG:  Solving for p_rgh, Initial residual = 1.58215e-05, Final residual = 9.07553e-07, No Iterations 19
time step continuity errors : sum local = 2.12116e-08, global = -1.30943e-09, cumulative = 0.000117097
ExecutionTime = 144.58 s  ClockTime = 146 s

Time = 2304

DILUPBiCGStab:  Solving for Ux, Initial residual = 1.01821e-05, Final residual = 3.54471e-07, No Iterations 1
DILUPBiCGStab:  Solving for Uy, Initial residual = 1.55898e-05, Final residual = 5.91674e-07, No Iterations 1
DILUPBiCGStab:  Solving for Uz, Initial residual = 2.35846e-05, Final residual = 8.04527e-07, No Iterations 1
DICPCG:  Solving for G, Initial residual = 9.99576e-06, Final residual = 8.37993e-07, No Iterations 22
DILUPBiCGStab:  Solving for h, Initial residual = 3.15945e-05, Final residual = 2.99008e-07, No Iterations 1
DICPCG:  Solving for p_rgh, Initial residual = 1.58153e-05, Final residual = 9.21177e-07, No Iterations 19
time step continuity errors : sum local = 2.15301e-08, global = -1.27593e-09, cumulative = 0.000117095
ExecutionTime = 144.64 s  ClockTime = 146 s


SIMPLE solution converged in 2304 iterations

End

Finalising parallel run
