/*---------------------------------------------------------------------------*\
  =========                 |
  \\      /  F ield         | OpenFOAM: The Open Source CFD Toolbox
   \\    /   O peration     | Website:  https://openfoam.org
    \\  /    A nd           | Version:  9
     \\/     M anipulation  |
\*---------------------------------------------------------------------------*/
Build  : 9-89839ae3b8cd
Exec   : buoyantSimpleFoam -parallel
Date   : Apr 08 2022
Time   : 11:32:56
Host   : "0b4a0c9cd4c1"
PID    : 12252
I/O    : uncollated
Case   : /home/openfoam/STL_ThermalZones/STL_IGU_55
nProcs : 16
Slaves : 
15
(
"0b4a0c9cd4c1.12253"
"0b4a0c9cd4c1.12254"
"0b4a0c9cd4c1.12255"
"0b4a0c9cd4c1.12256"
"0b4a0c9cd4c1.12257"
"0b4a0c9cd4c1.12258"
"0b4a0c9cd4c1.12259"
"0b4a0c9cd4c1.12260"
"0b4a0c9cd4c1.12261"
"0b4a0c9cd4c1.12262"
"0b4a0c9cd4c1.12263"
"0b4a0c9cd4c1.12264"
"0b4a0c9cd4c1.12265"
"0b4a0c9cd4c1.12266"
"0b4a0c9cd4c1.12267"
)

Pstream initialised with:
    floatTransfer      : 0
    nProcsSimpleSum    : 0
    commsType          : nonBlocking
    polling iterations : 0
sigFpe : Enabling floating point exception trapping (FOAM_SIGFPE).
fileModificationChecking : Monitoring run-time modified files using timeStampMaster (fileModificationSkew 10)
allowSystemOperations : Allowing user-supplied system call operations

// * * * * * * * * * * * * * * * * * * * * * * * * * * * * * * * * * * * * * //
Create time

Create mesh for time = 0


SIMPLE: Convergence criteria found
        p_rgh: tolerance 0.0001
        U: tolerance 0.0001
        h: tolerance 0.0001
        G: tolerance 1e-05
        "(k|epsilon|omega)": tolerance 0.0001

Reading thermophysical properties

Selecting thermodynamics package 
{
    type            heRhoThermo;
    mixture         pureMixture;
    transport       const;
    thermo          hConst;
    equationOfState perfectGas;
    specie          specie;
    energy          sensibleEnthalpy;
}

Reading field U

Reading/calculating face flux field phi

Creating turbulence model

Selecting turbulence model type RAS
Selecting RAS turbulence model kEpsilon
RAS
{
    model           kEpsilon;
    turbulence      off;
    printCoeffs     on;
    Cmu             0.09;
    C1              1.44;
    C2              1.92;
    C3              0;
    sigmak          1;
    sigmaEps        1.3;
}

Creating thermophysical transport model

Selecting thermophysical transport type RAS
Selecting default RAS thermophysical transport model unityLewisEddyDiffusivity

Reading g

Reading hRef
Calculating field g.h


Reading pRef
Reading field p_rgh

No MRF models present

Creating fvModels from "constant/fvModels"

Selecting finite volume model type radiation
    Name: radiation
Selecting radiationModel P1
Selecting absorptionEmissionModel constant
Selecting scatterModel none
Selecting soot model none
--> FOAM Warning : Creating fvConstraints from "system/fvOptions"

Selecting finite volume constraint type limitTemperature
    Name: limitTemperature
    - selecting all cells
    - selected 109358 cell(s) with volume 38.952

Starting time loop

Time = 1

DILUPBiCGStab:  Solving for Ux, Initial residual = 1, Final residual = 0.00281342, No Iterations 1
DILUPBiCGStab:  Solving for Uy, Initial residual = 1, Final residual = 0.00395576, No Iterations 1
DILUPBiCGStab:  Solving for Uz, Initial residual = 1, Final residual = 0.0023465, No Iterations 1
DICPCG:  Solving for G, Initial residual = 1, Final residual = 0.093838, No Iterations 22
DILUPBiCGStab:  Solving for h, Initial residual = 1, Final residual = 0.00464637, No Iterations 1
DICPCG:  Solving for p_rgh, Initial residual = 0.694191, Final residual = 0.00664932, No Iterations 63
time step continuity errors : sum local = 0.0219572, global = 8.31034e-05, cumulative = 8.31034e-05
ExecutionTime = 0.11 s  ClockTime = 0 s

Time = 2

DILUPBiCGStab:  Solving for Ux, Initial residual = 0.385623, Final residual = 0.00098958, No Iterations 1
DILUPBiCGStab:  Solving for Uy, Initial residual = 0.307463, Final residual = 0.000794391, No Iterations 1
DILUPBiCGStab:  Solving for Uz, Initial residual = 0.268578, Final residual = 0.000592799, No Iterations 1
DICPCG:  Solving for G, Initial residual = 0.713764, Final residual = 0.0608925, No Iterations 17
DILUPBiCGStab:  Solving for h, Initial residual = 0.037206, Final residual = 0.000256545, No Iterations 1
DICPCG:  Solving for p_rgh, Initial residual = 0.811328, Final residual = 0.00681431, No Iterations 69
time step continuity errors : sum local = 0.00724431, global = 7.10556e-06, cumulative = 9.0209e-05
ExecutionTime = 0.18 s  ClockTime = 0 s

Time = 3

DILUPBiCGStab:  Solving for Ux, Initial residual = 0.32398, Final residual = 0.000823297, No Iterations 1
DILUPBiCGStab:  Solving for Uy, Initial residual = 0.258291, Final residual = 0.000629536, No Iterations 1
DILUPBiCGStab:  Solving for Uz, Initial residual = 0.929112, Final residual = 0.00170038, No Iterations 1
DICPCG:  Solving for G, Initial residual = 0.287321, Final residual = 0.0248179, No Iterations 15
DILUPBiCGStab:  Solving for h, Initial residual = 0.0230951, Final residual = 0.000175388, No Iterations 1
DICPCG:  Solving for p_rgh, Initial residual = 0.794443, Final residual = 0.00666416, No Iterations 68
time step continuity errors : sum local = 0.00656481, global = -4.79059e-06, cumulative = 8.54184e-05
ExecutionTime = 0.24 s  ClockTime = 0 s

Time = 4

DILUPBiCGStab:  Solving for Ux, Initial residual = 0.291202, Final residual = 0.000729959, No Iterations 1
DILUPBiCGStab:  Solving for Uy, Initial residual = 0.265206, Final residual = 0.000709694, No Iterations 1
DILUPBiCGStab:  Solving for Uz, Initial residual = 0.168267, Final residual = 0.000335414, No Iterations 1
DICPCG:  Solving for G, Initial residual = 0.0445149, Final residual = 0.00439501, No Iterations 17
DILUPBiCGStab:  Solving for h, Initial residual = 0.0183235, Final residual = 0.000150994, No Iterations 1
DICPCG:  Solving for p_rgh, Initial residual = 0.656701, Final residual = 0.00640404, No Iterations 64
time step continuity errors : sum local = 0.00445835, global = 7.06905e-06, cumulative = 9.24874e-05
ExecutionTime = 0.3 s  ClockTime = 1 s

Time = 5

DILUPBiCGStab:  Solving for Ux, Initial residual = 0.240904, Final residual = 0.000628262, No Iterations 1
DILUPBiCGStab:  Solving for Uy, Initial residual = 0.230883, Final residual = 0.000554229, No Iterations 1
DILUPBiCGStab:  Solving for Uz, Initial residual = 0.807315, Final residual = 0.0021759, No Iterations 1
DICPCG:  Solving for G, Initial residual = 0.00866284, Final residual = 0.000807195, No Iterations 14
DILUPBiCGStab:  Solving for h, Initial residual = 0.0153368, Final residual = 0.000129566, No Iterations 1
DICPCG:  Solving for p_rgh, Initial residual = 0.665235, Final residual = 0.00534707, No Iterations 65
time step continuity errors : sum local = 0.00203258, global = 2.89692e-07, cumulative = 9.27771e-05
ExecutionTime = 0.36 s  ClockTime = 1 s

Time = 6

DILUPBiCGStab:  Solving for Ux, Initial residual = 0.230702, Final residual = 0.000552304, No Iterations 1
DILUPBiCGStab:  Solving for Uy, Initial residual = 0.235612, Final residual = 0.00054252, No Iterations 1
DILUPBiCGStab:  Solving for Uz, Initial residual = 0.31354, Final residual = 0.000725808, No Iterations 1
DICPCG:  Solving for G, Initial residual = 0.00347856, Final residual = 0.000332455, No Iterations 20
DILUPBiCGStab:  Solving for h, Initial residual = 0.0133633, Final residual = 0.000115692, No Iterations 1
DICPCG:  Solving for p_rgh, Initial residual = 0.645463, Final residual = 0.00537979, No Iterations 65
time step continuity errors : sum local = 0.00136426, global = -4.75359e-06, cumulative = 8.80235e-05
ExecutionTime = 0.43 s  ClockTime = 1 s

Time = 7

DILUPBiCGStab:  Solving for Ux, Initial residual = 0.149678, Final residual = 0.000392701, No Iterations 1
DILUPBiCGStab:  Solving for Uy, Initial residual = 0.152073, Final residual = 0.000431216, No Iterations 1
DILUPBiCGStab:  Solving for Uz, Initial residual = 0.532073, Final residual = 0.00128581, No Iterations 1
DICPCG:  Solving for G, Initial residual = 0.0020972, Final residual = 0.000206176, No Iterations 20
DILUPBiCGStab:  Solving for h, Initial residual = 0.0118631, Final residual = 0.000105248, No Iterations 1
DICPCG:  Solving for p_rgh, Initial residual = 0.545671, Final residual = 0.00455982, No Iterations 64
time step continuity errors : sum local = 0.000699653, global = 2.07998e-07, cumulative = 8.82315e-05
ExecutionTime = 0.49 s  ClockTime = 1 s

Time = 8

DILUPBiCGStab:  Solving for Ux, Initial residual = 0.0858484, Final residual = 0.000200535, No Iterations 1
DILUPBiCGStab:  Solving for Uy, Initial residual = 0.100917, Final residual = 0.000216723, No Iterations 1
DILUPBiCGStab:  Solving for Uz, Initial residual = 0.260848, Final residual = 0.000552976, No Iterations 1
DICPCG:  Solving for G, Initial residual = 0.00164431, Final residual = 0.000136833, No Iterations 22
DILUPBiCGStab:  Solving for h, Initial residual = 0.0105693, Final residual = 9.64849e-05, No Iterations 1
DICPCG:  Solving for p_rgh, Initial residual = 0.479314, Final residual = 0.00427886, No Iterations 64
time step continuity errors : sum local = 0.000484102, global = 4.56082e-08, cumulative = 8.82771e-05
ExecutionTime = 0.55 s  ClockTime = 1 s

Time = 9

DILUPBiCGStab:  Solving for Ux, Initial residual = 0.0780203, Final residual = 0.000207975, No Iterations 1
DILUPBiCGStab:  Solving for Uy, Initial residual = 0.0874825, Final residual = 0.000224878, No Iterations 1
DILUPBiCGStab:  Solving for Uz, Initial residual = 0.208948, Final residual = 0.000538059, No Iterations 1
DICPCG:  Solving for G, Initial residual = 0.00146113, Final residual = 0.000127388, No Iterations 22
DILUPBiCGStab:  Solving for h, Initial residual = 0.00947867, Final residual = 8.88709e-05, No Iterations 1
DICPCG:  Solving for p_rgh, Initial residual = 0.31519, Final residual = 0.00277074, No Iterations 64
time step continuity errors : sum local = 0.000239132, global = 1.25292e-07, cumulative = 8.84024e-05
ExecutionTime = 0.61 s  ClockTime = 1 s

Time = 10

DILUPBiCGStab:  Solving for Ux, Initial residual = 0.0513991, Final residual = 0.000123335, No Iterations 1
DILUPBiCGStab:  Solving for Uy, Initial residual = 0.064475, Final residual = 0.000136901, No Iterations 1
DILUPBiCGStab:  Solving for Uz, Initial residual = 0.144915, Final residual = 0.000365681, No Iterations 1
DICPCG:  Solving for G, Initial residual = 0.00132863, Final residual = 0.000117686, No Iterations 22
DILUPBiCGStab:  Solving for h, Initial residual = 0.00857184, Final residual = 8.20609e-05, No Iterations 1
DICPCG:  Solving for p_rgh, Initial residual = 0.248792, Final residual = 0.00218131, No Iterations 63
time step continuity errors : sum local = 0.000163118, global = 2.52853e-07, cumulative = 8.86553e-05
ExecutionTime = 0.68 s  ClockTime = 1 s

Time = 11

DILUPBiCGStab:  Solving for Ux, Initial residual = 0.0499976, Final residual = 0.000115584, No Iterations 1
DILUPBiCGStab:  Solving for Uy, Initial residual = 0.0620168, Final residual = 0.000143918, No Iterations 1
DILUPBiCGStab:  Solving for Uz, Initial residual = 0.0635203, Final residual = 0.000161612, No Iterations 1
DICPCG:  Solving for G, Initial residual = 0.00122017, Final residual = 0.000112037, No Iterations 22
DILUPBiCGStab:  Solving for h, Initial residual = 0.00780423, Final residual = 7.6278e-05, No Iterations 1
DICPCG:  Solving for p_rgh, Initial residual = 0.152721, Final residual = 0.00150398, No Iterations 24
time step continuity errors : sum local = 9.82934e-05, global = 2.67447e-05, cumulative = 0.0001154
ExecutionTime = 0.73 s  ClockTime = 1 s

Time = 12

DILUPBiCGStab:  Solving for Ux, Initial residual = 0.0384418, Final residual = 8.39171e-05, No Iterations 1
DILUPBiCGStab:  Solving for Uy, Initial residual = 0.0479538, Final residual = 0.000106627, No Iterations 1
DILUPBiCGStab:  Solving for Uz, Initial residual = 0.0626094, Final residual = 0.000153879, No Iterations 1
DICPCG:  Solving for G, Initial residual = 0.00112451, Final residual = 0.000103259, No Iterations 22
DILUPBiCGStab:  Solving for h, Initial residual = 0.00715214, Final residual = 7.14867e-05, No Iterations 1
DICPCG:  Solving for p_rgh, Initial residual = 0.118076, Final residual = 0.0010908, No Iterations 61
time step continuity errors : sum local = 6.59276e-05, global = -9.24443e-08, cumulative = 0.000115308
ExecutionTime = 0.8 s  ClockTime = 1 s

Time = 13

DILUPBiCGStab:  Solving for Ux, Initial residual = 0.0354598, Final residual = 8.37163e-05, No Iterations 1
DILUPBiCGStab:  Solving for Uy, Initial residual = 0.0438043, Final residual = 0.000105985, No Iterations 1
DILUPBiCGStab:  Solving for Uz, Initial residual = 0.0370849, Final residual = 8.81428e-05, No Iterations 1
DICPCG:  Solving for G, Initial residual = 0.00104335, Final residual = 9.84535e-05, No Iterations 22
DILUPBiCGStab:  Solving for h, Initial residual = 0.00657874, Final residual = 1.90949e-06, No Iterations 1
DICPCG:  Solving for p_rgh, Initial residual = 0.0820469, Final residual = 0.000724534, No Iterations 59
time step continuity errors : sum local = 4.15927e-05, global = 7.75494e-08, cumulative = 0.000115385
ExecutionTime = 0.86 s  ClockTime = 1 s

Time = 14

DILUPBiCGStab:  Solving for Ux, Initial residual = 0.0328341, Final residual = 7.8175e-05, No Iterations 1
DILUPBiCGStab:  Solving for Uy, Initial residual = 0.0392984, Final residual = 9.91748e-05, No Iterations 1
DILUPBiCGStab:  Solving for Uz, Initial residual = 0.0386424, Final residual = 9.7859e-05, No Iterations 1
DICPCG:  Solving for G, Initial residual = 0.000974337, Final residual = 9.17809e-05, No Iterations 22
DILUPBiCGStab:  Solving for h, Initial residual = 0.00607941, Final residual = 1.8456e-06, No Iterations 1
DICPCG:  Solving for p_rgh, Initial residual = 0.0667277, Final residual = 0.000555054, No Iterations 21
time step continuity errors : sum local = 3.05383e-05, global = -8.48759e-06, cumulative = 0.000106898
ExecutionTime = 0.93 s  ClockTime = 1 s

Time = 15

DILUPBiCGStab:  Solving for Ux, Initial residual = 0.0316514, Final residual = 7.37986e-05, No Iterations 1
DILUPBiCGStab:  Solving for Uy, Initial residual = 0.0374047, Final residual = 9.63909e-05, No Iterations 1
DILUPBiCGStab:  Solving for Uz, Initial residual = 0.0289759, Final residual = 6.75803e-05, No Iterations 1
DICPCG:  Solving for G, Initial residual = 0.000911439, Final residual = 8.69507e-05, No Iterations 22
DILUPBiCGStab:  Solving for h, Initial residual = 0.00563854, Final residual = 1.78354e-06, No Iterations 1
DICPCG:  Solving for p_rgh, Initial residual = 0.0548262, Final residual = 0.000525633, No Iterations 19
time step continuity errors : sum local = 2.78439e-05, global = 6.27986e-06, cumulative = 0.000113177
ExecutionTime = 0.98 s  ClockTime = 1 s

Time = 16

DILUPBiCGStab:  Solving for Ux, Initial residual = 0.0304592, Final residual = 7.02006e-05, No Iterations 1
DILUPBiCGStab:  Solving for Uy, Initial residual = 0.0350133, Final residual = 9.35625e-05, No Iterations 1
DILUPBiCGStab:  Solving for Uz, Initial residual = 0.0269144, Final residual = 6.03748e-05, No Iterations 1
DICPCG:  Solving for G, Initial residual = 0.000855535, Final residual = 8.14135e-05, No Iterations 22
DILUPBiCGStab:  Solving for h, Initial residual = 0.00525133, Final residual = 1.72497e-06, No Iterations 1
DICPCG:  Solving for p_rgh, Initial residual = 0.0494795, Final residual = 0.000424634, No Iterations 54
time step continuity errors : sum local = 2.16663e-05, global = 2.43616e-08, cumulative = 0.000113202
ExecutionTime = 1.05 s  ClockTime = 1 s

Time = 17

DILUPBiCGStab:  Solving for Ux, Initial residual = 0.0291873, Final residual = 6.8857e-05, No Iterations 1
DILUPBiCGStab:  Solving for Uy, Initial residual = 0.0327311, Final residual = 9.05514e-05, No Iterations 1
DILUPBiCGStab:  Solving for Uz, Initial residual = 0.0268126, Final residual = 6.02851e-05, No Iterations 1
DICPCG:  Solving for G, Initial residual = 0.00080565, Final residual = 7.69959e-05, No Iterations 22
DILUPBiCGStab:  Solving for h, Initial residual = 0.00491393, Final residual = 1.66445e-06, No Iterations 1
DICPCG:  Solving for p_rgh, Initial residual = 0.0455114, Final residual = 0.000443802, No Iterations 55
time step continuity errors : sum local = 2.19538e-05, global = -4.89465e-09, cumulative = 0.000113197
ExecutionTime = 1.12 s  ClockTime = 1 s

Time = 18

DILUPBiCGStab:  Solving for Ux, Initial residual = 0.0282783, Final residual = 6.96758e-05, No Iterations 1
DILUPBiCGStab:  Solving for Uy, Initial residual = 0.0309485, Final residual = 8.65447e-05, No Iterations 1
DILUPBiCGStab:  Solving for Uz, Initial residual = 0.0264599, Final residual = 5.90858e-05, No Iterations 1
DICPCG:  Solving for G, Initial residual = 0.00076005, Final residual = 7.30142e-05, No Iterations 22
DILUPBiCGStab:  Solving for h, Initial residual = 0.00461472, Final residual = 1.60426e-06, No Iterations 1
DICPCG:  Solving for p_rgh, Initial residual = 0.042135, Final residual = 0.000364049, No Iterations 57
time step continuity errors : sum local = 1.74636e-05, global = 9.05601e-08, cumulative = 0.000113287
ExecutionTime = 1.19 s  ClockTime = 1 s

Time = 19

DILUPBiCGStab:  Solving for Ux, Initial residual = 0.027503, Final residual = 7.0147e-05, No Iterations 1
DILUPBiCGStab:  Solving for Uy, Initial residual = 0.0293672, Final residual = 8.09009e-05, No Iterations 1
DILUPBiCGStab:  Solving for Uz, Initial residual = 0.0251175, Final residual = 5.47882e-05, No Iterations 1
DICPCG:  Solving for G, Initial residual = 0.000718812, Final residual = 6.87169e-05, No Iterations 22
DILUPBiCGStab:  Solving for h, Initial residual = 0.00435602, Final residual = 1.54602e-06, No Iterations 1
DICPCG:  Solving for p_rgh, Initial residual = 0.0395484, Final residual = 0.000369198, No Iterations 52
time step continuity errors : sum local = 1.71803e-05, global = 7.07598e-08, cumulative = 0.000113358
ExecutionTime = 1.24 s  ClockTime = 1 s

Time = 20

DILUPBiCGStab:  Solving for Ux, Initial residual = 0.0267798, Final residual = 6.96922e-05, No Iterations 1
DILUPBiCGStab:  Solving for Uy, Initial residual = 0.0279187, Final residual = 7.49886e-05, No Iterations 1
DILUPBiCGStab:  Solving for Uz, Initial residual = 0.0240129, Final residual = 5.14882e-05, No Iterations 1
DICPCG:  Solving for G, Initial residual = 0.000745181, Final residual = 7.19627e-05, No Iterations 21
DILUPBiCGStab:  Solving for h, Initial residual = 0.00414063, Final residual = 1.49218e-06, No Iterations 1
DICPCG:  Solving for p_rgh, Initial residual = 0.0369665, Final residual = 0.00036226, No Iterations 52
time step continuity errors : sum local = 1.64218e-05, global = -4.99651e-08, cumulative = 0.000113308
ExecutionTime = 1.32 s  ClockTime = 2 s

Time = 21

DILUPBiCGStab:  Solving for Ux, Initial residual = 0.0260688, Final residual = 6.9804e-05, No Iterations 1
DILUPBiCGStab:  Solving for Uy, Initial residual = 0.026542, Final residual = 6.96099e-05, No Iterations 1
DILUPBiCGStab:  Solving for Uz, Initial residual = 0.0234041, Final residual = 4.93303e-05, No Iterations 1
DICPCG:  Solving for G, Initial residual = 0.000647894, Final residual = 6.16621e-05, No Iterations 22
DILUPBiCGStab:  Solving for h, Initial residual = 0.00396618, Final residual = 1.44524e-06, No Iterations 1
DICPCG:  Solving for p_rgh, Initial residual = 0.0344094, Final residual = 0.000333006, No Iterations 17
time step continuity errors : sum local = 1.47065e-05, global = 4.59466e-06, cumulative = 0.000117903
ExecutionTime = 1.38 s  ClockTime = 2 s

Time = 22

DILUPBiCGStab:  Solving for Ux, Initial residual = 0.0253093, Final residual = 6.92379e-05, No Iterations 1
DILUPBiCGStab:  Solving for Uy, Initial residual = 0.0251983, Final residual = 6.38327e-05, No Iterations 1
DILUPBiCGStab:  Solving for Uz, Initial residual = 0.0226643, Final residual = 4.81342e-05, No Iterations 1
DICPCG:  Solving for G, Initial residual = 0.000618284, Final residual = 5.85946e-05, No Iterations 22
DILUPBiCGStab:  Solving for h, Initial residual = 0.0038171, Final residual = 1.40101e-06, No Iterations 1
DICPCG:  Solving for p_rgh, Initial residual = 0.032165, Final residual = 0.000318554, No Iterations 11
time step continuity errors : sum local = 1.37064e-05, global = 2.67585e-06, cumulative = 0.000120579
ExecutionTime = 1.43 s  ClockTime = 2 s

Time = 23

DILUPBiCGStab:  Solving for Ux, Initial residual = 0.0245425, Final residual = 6.83092e-05, No Iterations 1
DILUPBiCGStab:  Solving for Uy, Initial residual = 0.0240787, Final residual = 5.90342e-05, No Iterations 1
DILUPBiCGStab:  Solving for Uz, Initial residual = 0.0219901, Final residual = 4.74903e-05, No Iterations 1
DICPCG:  Solving for G, Initial residual = 0.000623284, Final residual = 5.12129e-05, No Iterations 23
DILUPBiCGStab:  Solving for h, Initial residual = 0.00368802, Final residual = 1.36047e-06, No Iterations 1
DICPCG:  Solving for p_rgh, Initial residual = 0.0300571, Final residual = 0.000267089, No Iterations 20
time step continuity errors : sum local = 1.12001e-05, global = 1.10438e-06, cumulative = 0.000121683
ExecutionTime = 1.48 s  ClockTime = 2 s

Time = 24

DILUPBiCGStab:  Solving for Ux, Initial residual = 0.0238198, Final residual = 6.65062e-05, No Iterations 1
DILUPBiCGStab:  Solving for Uy, Initial residual = 0.0230052, Final residual = 5.55303e-05, No Iterations 1
DILUPBiCGStab:  Solving for Uz, Initial residual = 0.0214815, Final residual = 4.52881e-05, No Iterations 1
DICPCG:  Solving for G, Initial residual = 0.000595146, Final residual = 4.93906e-05, No Iterations 22
DILUPBiCGStab:  Solving for h, Initial residual = 0.00357162, Final residual = 1.32312e-06, No Iterations 1
DICPCG:  Solving for p_rgh, Initial residual = 0.0281169, Final residual = 0.000261019, No Iterations 11
time step continuity errors : sum local = 1.07217e-05, global = -9.40134e-08, cumulative = 0.000121589
ExecutionTime = 1.54 s  ClockTime = 2 s

Time = 25

DILUPBiCGStab:  Solving for Ux, Initial residual = 0.0232252, Final residual = 6.53989e-05, No Iterations 1
DILUPBiCGStab:  Solving for Uy, Initial residual = 0.0219982, Final residual = 5.3185e-05, No Iterations 1
DILUPBiCGStab:  Solving for Uz, Initial residual = 0.0208636, Final residual = 4.41369e-05, No Iterations 1
DICPCG:  Solving for G, Initial residual = 0.000542414, Final residual = 5.22075e-05, No Iterations 22
DILUPBiCGStab:  Solving for h, Initial residual = 0.00346639, Final residual = 1.28805e-06, No Iterations 1
DICPCG:  Solving for p_rgh, Initial residual = 0.0262621, Final residual = 0.000241514, No Iterations 12
time step continuity errors : sum local = 9.71737e-06, global = 2.83233e-07, cumulative = 0.000121872
ExecutionTime = 1.59 s  ClockTime = 2 s

Time = 26

DILUPBiCGStab:  Solving for Ux, Initial residual = 0.022592, Final residual = 6.3891e-05, No Iterations 1
DILUPBiCGStab:  Solving for Uy, Initial residual = 0.0210493, Final residual = 5.1495e-05, No Iterations 1
DILUPBiCGStab:  Solving for Uz, Initial residual = 0.0202643, Final residual = 4.55445e-05, No Iterations 1
DICPCG:  Solving for G, Initial residual = 0.000524275, Final residual = 5.16725e-05, No Iterations 22
DILUPBiCGStab:  Solving for h, Initial residual = 0.00337174, Final residual = 1.25542e-06, No Iterations 1
DICPCG:  Solving for p_rgh, Initial residual = 0.0247753, Final residual = 0.000247599, No Iterations 15
time step continuity errors : sum local = 9.77282e-06, global = -1.44426e-07, cumulative = 0.000121728
ExecutionTime = 1.65 s  ClockTime = 2 s

Time = 27

DILUPBiCGStab:  Solving for Ux, Initial residual = 0.0218822, Final residual = 6.20125e-05, No Iterations 1
DILUPBiCGStab:  Solving for Uy, Initial residual = 0.020184, Final residual = 5.00695e-05, No Iterations 1
DILUPBiCGStab:  Solving for Uz, Initial residual = 0.0197586, Final residual = 4.51503e-05, No Iterations 1
DICPCG:  Solving for G, Initial residual = 0.000506703, Final residual = 4.95475e-05, No Iterations 22
DILUPBiCGStab:  Solving for h, Initial residual = 0.00328522, Final residual = 1.22553e-06, No Iterations 1
DICPCG:  Solving for p_rgh, Initial residual = 0.0234462, Final residual = 0.000213487, No Iterations 19
time step continuity errors : sum local = 8.27737e-06, global = -6.09707e-07, cumulative = 0.000121118
ExecutionTime = 1.7 s  ClockTime = 2 s

Time = 28

DILUPBiCGStab:  Solving for Ux, Initial residual = 0.0211853, Final residual = 6.01089e-05, No Iterations 1
DILUPBiCGStab:  Solving for Uy, Initial residual = 0.0194126, Final residual = 4.87491e-05, No Iterations 1
DILUPBiCGStab:  Solving for Uz, Initial residual = 0.0192714, Final residual = 4.42977e-05, No Iterations 1
DICPCG:  Solving for G, Initial residual = 0.000490321, Final residual = 3.83074e-05, No Iterations 23
DILUPBiCGStab:  Solving for h, Initial residual = 0.00320612, Final residual = 1.19839e-06, No Iterations 1
DICPCG:  Solving for p_rgh, Initial residual = 0.0221807, Final residual = 0.00021745, No Iterations 12
time step continuity errors : sum local = 8.29212e-06, global = -1.33293e-06, cumulative = 0.000119785
ExecutionTime = 1.75 s  ClockTime = 2 s

Time = 29

DILUPBiCGStab:  Solving for Ux, Initial residual = 0.0205756, Final residual = 5.83163e-05, No Iterations 1
DILUPBiCGStab:  Solving for Uy, Initial residual = 0.0186691, Final residual = 4.73056e-05, No Iterations 1
DILUPBiCGStab:  Solving for Uz, Initial residual = 0.0187762, Final residual = 4.33611e-05, No Iterations 1
DICPCG:  Solving for G, Initial residual = 0.000471916, Final residual = 4.6644e-05, No Iterations 22
DILUPBiCGStab:  Solving for h, Initial residual = 0.00313345, Final residual = 1.17352e-06, No Iterations 1
DICPCG:  Solving for p_rgh, Initial residual = 0.0210691, Final residual = 0.000207882, No Iterations 22
time step continuity errors : sum local = 7.80591e-06, global = -1.55666e-06, cumulative = 0.000118229
ExecutionTime = 1.8 s  ClockTime = 2 s

Time = 30

DILUPBiCGStab:  Solving for Ux, Initial residual = 0.0199394, Final residual = 5.6464e-05, No Iterations 1
DILUPBiCGStab:  Solving for Uy, Initial residual = 0.0179679, Final residual = 4.57647e-05, No Iterations 1
DILUPBiCGStab:  Solving for Uz, Initial residual = 0.0183057, Final residual = 4.23117e-05, No Iterations 1
DICPCG:  Solving for G, Initial residual = 0.000461585, Final residual = 4.52903e-05, No Iterations 22
DILUPBiCGStab:  Solving for h, Initial residual = 0.00306558, Final residual = 1.15117e-06, No Iterations 1
DICPCG:  Solving for p_rgh, Initial residual = 0.0200571, Final residual = 0.000191185, No Iterations 13
time step continuity errors : sum local = 7.07675e-06, global = -1.8618e-06, cumulative = 0.000116367
ExecutionTime = 1.87 s  ClockTime = 2 s

Time = 31

DILUPBiCGStab:  Solving for Ux, Initial residual = 0.0193299, Final residual = 5.46942e-05, No Iterations 1
DILUPBiCGStab:  Solving for Uy, Initial residual = 0.0173253, Final residual = 4.43586e-05, No Iterations 1
DILUPBiCGStab:  Solving for Uz, Initial residual = 0.0178466, Final residual = 4.12742e-05, No Iterations 1
DICPCG:  Solving for G, Initial residual = 0.000448406, Final residual = 3.5912e-05, No Iterations 23
DILUPBiCGStab:  Solving for h, Initial residual = 0.00300212, Final residual = 1.13072e-06, No Iterations 1
DICPCG:  Solving for p_rgh, Initial residual = 0.0191233, Final residual = 0.00018947, No Iterations 19
time step continuity errors : sum local = 6.92159e-06, global = -1.82995e-06, cumulative = 0.000114537
ExecutionTime = 1.92 s  ClockTime = 2 s

Time = 32

DILUPBiCGStab:  Solving for Ux, Initial residual = 0.0186712, Final residual = 5.28242e-05, No Iterations 1
DILUPBiCGStab:  Solving for Uy, Initial residual = 0.0167074, Final residual = 4.29153e-05, No Iterations 1
DILUPBiCGStab:  Solving for Uz, Initial residual = 0.0174016, Final residual = 4.01822e-05, No Iterations 1
DICPCG:  Solving for G, Initial residual = 0.000434151, Final residual = 3.48613e-05, No Iterations 23
DILUPBiCGStab:  Solving for h, Initial residual = 0.00294307, Final residual = 1.11188e-06, No Iterations 1
DICPCG:  Solving for p_rgh, Initial residual = 0.0182607, Final residual = 0.000172558, No Iterations 22
time step continuity errors : sum local = 6.22763e-06, global = -1.51557e-06, cumulative = 0.000113021
ExecutionTime = 1.97 s  ClockTime = 2 s

Time = 33

DILUPBiCGStab:  Solving for Ux, Initial residual = 0.0180801, Final residual = 5.11093e-05, No Iterations 1
DILUPBiCGStab:  Solving for Uy, Initial residual = 0.0161234, Final residual = 4.15423e-05, No Iterations 1
DILUPBiCGStab:  Solving for Uz, Initial residual = 0.0169506, Final residual = 3.90873e-05, No Iterations 1
DICPCG:  Solving for G, Initial residual = 0.000423, Final residual = 3.44847e-05, No Iterations 23
DILUPBiCGStab:  Solving for h, Initial residual = 0.00288748, Final residual = 1.09479e-06, No Iterations 1
DICPCG:  Solving for p_rgh, Initial residual = 0.0174603, Final residual = 0.000168337, No Iterations 16
time step continuity errors : sum local = 6.0074e-06, global = -1.17009e-06, cumulative = 0.000111851
ExecutionTime = 2.03 s  ClockTime = 2 s

Time = 34

DILUPBiCGStab:  Solving for Ux, Initial residual = 0.0175265, Final residual = 4.95064e-05, No Iterations 1
DILUPBiCGStab:  Solving for Uy, Initial residual = 0.0155769, Final residual = 4.02305e-05, No Iterations 1
DILUPBiCGStab:  Solving for Uz, Initial residual = 0.0165266, Final residual = 3.80505e-05, No Iterations 1
DICPCG:  Solving for G, Initial residual = 0.000413215, Final residual = 3.39253e-05, No Iterations 23
DILUPBiCGStab:  Solving for h, Initial residual = 0.00283539, Final residual = 1.079e-06, No Iterations 1
DICPCG:  Solving for p_rgh, Initial residual = 0.0167134, Final residual = 0.000162279, No Iterations 22
time step continuity errors : sum local = 5.7311e-06, global = -4.86056e-07, cumulative = 0.000111365
ExecutionTime = 2.09 s  ClockTime = 2 s

Time = 35

DILUPBiCGStab:  Solving for Ux, Initial residual = 0.0169432, Final residual = 4.78695e-05, No Iterations 1
DILUPBiCGStab:  Solving for Uy, Initial residual = 0.0150474, Final residual = 3.89493e-05, No Iterations 1
DILUPBiCGStab:  Solving for Uz, Initial residual = 0.0161051, Final residual = 3.69729e-05, No Iterations 1
DICPCG:  Solving for G, Initial residual = 0.000404231, Final residual = 3.38912e-05, No Iterations 23
DILUPBiCGStab:  Solving for h, Initial residual = 0.00278666, Final residual = 1.06466e-06, No Iterations 1
DICPCG:  Solving for p_rgh, Initial residual = 0.016033, Final residual = 0.00015039, No Iterations 21
time step continuity errors : sum local = 5.25974e-06, global = 2.37563e-07, cumulative = 0.000111603
ExecutionTime = 2.15 s  ClockTime = 2 s

Time = 36

DILUPBiCGStab:  Solving for Ux, Initial residual = 0.0164131, Final residual = 4.63216e-05, No Iterations 1
DILUPBiCGStab:  Solving for Uy, Initial residual = 0.0145713, Final residual = 3.69524e-05, No Iterations 1
DILUPBiCGStab:  Solving for Uz, Initial residual = 0.0157036, Final residual = 3.59694e-05, No Iterations 1
DICPCG:  Solving for G, Initial residual = 0.000418995, Final residual = 3.89329e-05, No Iterations 22
DILUPBiCGStab:  Solving for h, Initial residual = 0.00274077, Final residual = 1.05128e-06, No Iterations 1
DICPCG:  Solving for p_rgh, Initial residual = 0.0154018, Final residual = 0.000153191, No Iterations 25
time step continuity errors : sum local = 5.31854e-06, global = 1.30343e-06, cumulative = 0.000112906
ExecutionTime = 2.2 s  ClockTime = 2 s

Time = 37

DILUPBiCGStab:  Solving for Ux, Initial residual = 0.0158976, Final residual = 4.48735e-05, No Iterations 1
DILUPBiCGStab:  Solving for Uy, Initial residual = 0.0140971, Final residual = 3.63978e-05, No Iterations 1
DILUPBiCGStab:  Solving for Uz, Initial residual = 0.0153374, Final residual = 3.21029e-05, No Iterations 1
DICPCG:  Solving for G, Initial residual = 0.00041561, Final residual = 3.64878e-05, No Iterations 23
DILUPBiCGStab:  Solving for h, Initial residual = 0.00269744, Final residual = 1.03889e-06, No Iterations 1
DICPCG:  Solving for p_rgh, Initial residual = 0.0148573, Final residual = 0.000135141, No Iterations 49
time step continuity errors : sum local = 4.64471e-06, global = 8.75138e-08, cumulative = 0.000112994
ExecutionTime = 2.26 s  ClockTime = 2 s

Time = 38

DILUPBiCGStab:  Solving for Ux, Initial residual = 0.0153992, Final residual = 4.34287e-05, No Iterations 1
DILUPBiCGStab:  Solving for Uy, Initial residual = 0.013643, Final residual = 3.51514e-05, No Iterations 1
DILUPBiCGStab:  Solving for Uz, Initial residual = 0.014991, Final residual = 3.24924e-05, No Iterations 1
DICPCG:  Solving for G, Initial residual = 0.000409264, Final residual = 3.77796e-05, No Iterations 22
DILUPBiCGStab:  Solving for h, Initial residual = 0.00265669, Final residual = 1.02723e-06, No Iterations 1
DICPCG:  Solving for p_rgh, Initial residual = 0.0143459, Final residual = 0.000133588, No Iterations 55
time step continuity errors : sum local = 4.56546e-06, global = -1.84801e-08, cumulative = 0.000112975
ExecutionTime = 2.33 s  ClockTime = 3 s

Time = 39

DILUPBiCGStab:  Solving for Ux, Initial residual = 0.0149032, Final residual = 4.20173e-05, No Iterations 1
DILUPBiCGStab:  Solving for Uy, Initial residual = 0.0132455, Final residual = 3.44274e-05, No Iterations 1
DILUPBiCGStab:  Solving for Uz, Initial residual = 0.0145837, Final residual = 3.12557e-05, No Iterations 1
DICPCG:  Solving for G, Initial residual = 0.000379444, Final residual = 3.2595e-05, No Iterations 23
DILUPBiCGStab:  Solving for h, Initial residual = 0.00261849, Final residual = 1.01623e-06, No Iterations 1
DICPCG:  Solving for p_rgh, Initial residual = 0.0137993, Final residual = 0.000120887, No Iterations 19
time step continuity errors : sum local = 4.09932e-06, global = 4.46969e-07, cumulative = 0.000113422
ExecutionTime = 2.38 s  ClockTime = 3 s

Time = 40

DILUPBiCGStab:  Solving for Ux, Initial residual = 0.0144513, Final residual = 4.06874e-05, No Iterations 1
DILUPBiCGStab:  Solving for Uy, Initial residual = 0.0128267, Final residual = 3.34833e-05, No Iterations 1
DILUPBiCGStab:  Solving for Uz, Initial residual = 0.0141956, Final residual = 3.19374e-05, No Iterations 1
DICPCG:  Solving for G, Initial residual = 0.000369721, Final residual = 3.22275e-05, No Iterations 23
DILUPBiCGStab:  Solving for h, Initial residual = 0.00258296, Final residual = 1.00595e-06, No Iterations 1
DICPCG:  Solving for p_rgh, Initial residual = 0.013333, Final residual = 0.000124084, No Iterations 27
time step continuity errors : sum local = 4.17778e-06, global = 9.7311e-07, cumulative = 0.000114395
ExecutionTime = 2.46 s  ClockTime = 3 s

Time = 41

DILUPBiCGStab:  Solving for Ux, Initial residual = 0.0140157, Final residual = 3.9421e-05, No Iterations 1
DILUPBiCGStab:  Solving for Uy, Initial residual = 0.0124594, Final residual = 3.26224e-05, No Iterations 1
DILUPBiCGStab:  Solving for Uz, Initial residual = 0.0138246, Final residual = 3.11767e-05, No Iterations 1
DICPCG:  Solving for G, Initial residual = 0.000363758, Final residual = 3.22728e-05, No Iterations 23
DILUPBiCGStab:  Solving for h, Initial residual = 0.00254943, Final residual = 9.96185e-07, No Iterations 1
DICPCG:  Solving for p_rgh, Initial residual = 0.0129203, Final residual = 0.00011818, No Iterations 50
time step continuity errors : sum local = 3.95254e-06, global = 4.49719e-08, cumulative = 0.00011444
ExecutionTime = 2.52 s  ClockTime = 3 s

Time = 42

DILUPBiCGStab:  Solving for Ux, Initial residual = 0.0135924, Final residual = 3.82258e-05, No Iterations 1
DILUPBiCGStab:  Solving for Uy, Initial residual = 0.0121023, Final residual = 3.17358e-05, No Iterations 1
DILUPBiCGStab:  Solving for Uz, Initial residual = 0.0135047, Final residual = 3.03411e-05, No Iterations 1
DICPCG:  Solving for G, Initial residual = 0.000358588, Final residual = 3.14981e-05, No Iterations 23
DILUPBiCGStab:  Solving for h, Initial residual = 0.00251785, Final residual = 9.86984e-07, No Iterations 1
DICPCG:  Solving for p_rgh, Initial residual = 0.0125335, Final residual = 0.000116042, No Iterations 19
time step continuity errors : sum local = 3.85793e-06, global = -3.85962e-07, cumulative = 0.000114054
ExecutionTime = 2.58 s  ClockTime = 3 s

Time = 43

DILUPBiCGStab:  Solving for Ux, Initial residual = 0.0131864, Final residual = 3.70343e-05, No Iterations 1
DILUPBiCGStab:  Solving for Uy, Initial residual = 0.011755, Final residual = 3.08251e-05, No Iterations 1
DILUPBiCGStab:  Solving for Uz, Initial residual = 0.0131587, Final residual = 2.94796e-05, No Iterations 1
DICPCG:  Solving for G, Initial residual = 0.000354017, Final residual = 3.19051e-05, No Iterations 23
DILUPBiCGStab:  Solving for h, Initial residual = 0.00248815, Final residual = 9.78305e-07, No Iterations 1
DICPCG:  Solving for p_rgh, Initial residual = 0.0121645, Final residual = 0.000111001, No Iterations 27
time step continuity errors : sum local = 3.66866e-06, global = -7.79629e-07, cumulative = 0.000113275
ExecutionTime = 2.65 s  ClockTime = 3 s

Time = 44

DILUPBiCGStab:  Solving for Ux, Initial residual = 0.0128031, Final residual = 3.59105e-05, No Iterations 1
DILUPBiCGStab:  Solving for Uy, Initial residual = 0.0114395, Final residual = 3.00445e-05, No Iterations 1
DILUPBiCGStab:  Solving for Uz, Initial residual = 0.0128129, Final residual = 2.86484e-05, No Iterations 1
DICPCG:  Solving for G, Initial residual = 0.000349833, Final residual = 3.13286e-05, No Iterations 23
DILUPBiCGStab:  Solving for h, Initial residual = 0.00246039, Final residual = 9.70329e-07, No Iterations 1
DICPCG:  Solving for p_rgh, Initial residual = 0.0118225, Final residual = 0.000105602, No Iterations 27
time step continuity errors : sum local = 3.47083e-06, global = -8.35625e-07, cumulative = 0.000112439
ExecutionTime = 2.7 s  ClockTime = 3 s

Time = 45

DILUPBiCGStab:  Solving for Ux, Initial residual = 0.0124383, Final residual = 3.48504e-05, No Iterations 1
DILUPBiCGStab:  Solving for Uy, Initial residual = 0.0111301, Final residual = 2.92498e-05, No Iterations 1
DILUPBiCGStab:  Solving for Uz, Initial residual = 0.0124923, Final residual = 2.78724e-05, No Iterations 1
DICPCG:  Solving for G, Initial residual = 0.000345716, Final residual = 3.1006e-05, No Iterations 23
DILUPBiCGStab:  Solving for h, Initial residual = 0.00243435, Final residual = 9.62958e-07, No Iterations 1
DICPCG:  Solving for p_rgh, Initial residual = 0.0114916, Final residual = 0.000110912, No Iterations 22
time step continuity errors : sum local = 3.62608e-06, global = -6.41358e-07, cumulative = 0.000111798
ExecutionTime = 2.77 s  ClockTime = 3 s

Time = 46

DILUPBiCGStab:  Solving for Ux, Initial residual = 0.0120842, Final residual = 3.38219e-05, No Iterations 1
DILUPBiCGStab:  Solving for Uy, Initial residual = 0.0108316, Final residual = 2.84673e-05, No Iterations 1
DILUPBiCGStab:  Solving for Uz, Initial residual = 0.012184, Final residual = 2.71241e-05, No Iterations 1
DICPCG:  Solving for G, Initial residual = 0.000342069, Final residual = 3.11008e-05, No Iterations 23
DILUPBiCGStab:  Solving for h, Initial residual = 0.00241001, Final residual = 9.55909e-07, No Iterations 1
DICPCG:  Solving for p_rgh, Initial residual = 0.0111803, Final residual = 9.38786e-05, No Iterations 27
time step continuity errors : sum local = 3.054e-06, global = -1.65573e-07, cumulative = 0.000111632
ExecutionTime = 2.83 s  ClockTime = 3 s

Time = 47

DILUPBiCGStab:  Solving for Ux, Initial residual = 0.0117515, Final residual = 3.2843e-05, No Iterations 1
DILUPBiCGStab:  Solving for Uy, Initial residual = 0.0105589, Final residual = 2.77702e-05, No Iterations 1
DILUPBiCGStab:  Solving for Uz, Initial residual = 0.011873, Final residual = 2.63877e-05, No Iterations 1
DICPCG:  Solving for G, Initial residual = 0.000338809, Final residual = 3.12475e-05, No Iterations 23
DILUPBiCGStab:  Solving for h, Initial residual = 0.00238702, Final residual = 9.49204e-07, No Iterations 1
DICPCG:  Solving for p_rgh, Initial residual = 0.0108764, Final residual = 0.000108074, No Iterations 26
time step continuity errors : sum local = 3.49933e-06, global = 4.51215e-07, cumulative = 0.000112083
ExecutionTime = 2.89 s  ClockTime = 3 s

Time = 48

DILUPBiCGStab:  Solving for Ux, Initial residual = 0.0114249, Final residual = 3.18883e-05, No Iterations 1
DILUPBiCGStab:  Solving for Uy, Initial residual = 0.0102909, Final residual = 2.70715e-05, No Iterations 1
DILUPBiCGStab:  Solving for Uz, Initial residual = 0.0115793, Final residual = 2.56873e-05, No Iterations 1
DICPCG:  Solving for G, Initial residual = 0.000335889, Final residual = 3.11809e-05, No Iterations 23
DILUPBiCGStab:  Solving for h, Initial residual = 0.00236542, Final residual = 9.42731e-07, No Iterations 1
DICPCG:  Solving for p_rgh, Initial residual = 0.0106006, Final residual = 0.000102801, No Iterations 54
time step continuity errors : sum local = 3.31397e-06, global = 6.27636e-08, cumulative = 0.000112146
ExecutionTime = 2.96 s  ClockTime = 3 s

Time = 49

DILUPBiCGStab:  Solving for Ux, Initial residual = 0.0111123, Final residual = 3.09921e-05, No Iterations 1
DILUPBiCGStab:  Solving for Uy, Initial residual = 0.0100329, Final residual = 2.63782e-05, No Iterations 1
DILUPBiCGStab:  Solving for Uz, Initial residual = 0.0113155, Final residual = 2.50349e-05, No Iterations 1
DICPCG:  Solving for G, Initial residual = 0.00033317, Final residual = 3.12059e-05, No Iterations 23
DILUPBiCGStab:  Solving for h, Initial residual = 0.00234503, Final residual = 9.36495e-07, No Iterations 1
DICPCG:  Solving for p_rgh, Initial residual = 0.0103555, Final residual = 9.60691e-05, No Iterations 22
time step continuity errors : sum local = 3.0848e-06, global = 1.5085e-07, cumulative = 0.000112297
ExecutionTime = 3.01 s  ClockTime = 3 s

Time = 50

DILUPBiCGStab:  Solving for Ux, Initial residual = 0.0108102, Final residual = 3.00974e-05, No Iterations 1
DILUPBiCGStab:  Solving for Uy, Initial residual = 0.00978984, Final residual = 2.57434e-05, No Iterations 1
DILUPBiCGStab:  Solving for Uz, Initial residual = 0.0110365, Final residual = 2.43794e-05, No Iterations 1
DICPCG:  Solving for G, Initial residual = 0.000331083, Final residual = 3.11339e-05, No Iterations 23
DILUPBiCGStab:  Solving for h, Initial residual = 0.00232574, Final residual = 9.30705e-07, No Iterations 1
DICPCG:  Solving for p_rgh, Initial residual = 0.010121, Final residual = 9.77542e-05, No Iterations 27
time step continuity errors : sum local = 3.12656e-06, global = 2.37782e-07, cumulative = 0.000112535
ExecutionTime = 3.09 s  ClockTime = 3 s

Time = 51

DILUPBiCGStab:  Solving for Ux, Initial residual = 0.0105297, Final residual = 2.92657e-05, No Iterations 1
DILUPBiCGStab:  Solving for Uy, Initial residual = 0.00956602, Final residual = 2.51569e-05, No Iterations 1
DILUPBiCGStab:  Solving for Uz, Initial residual = 0.0107614, Final residual = 2.37448e-05, No Iterations 1
DICPCG:  Solving for G, Initial residual = 0.000328762, Final residual = 3.09192e-05, No Iterations 23
DILUPBiCGStab:  Solving for h, Initial residual = 0.0023076, Final residual = 9.25214e-07, No Iterations 1
DICPCG:  Solving for p_rgh, Initial residual = 0.00988315, Final residual = 9.7364e-05, No Iterations 28
time step continuity errors : sum local = 3.10261e-06, global = 5.71367e-07, cumulative = 0.000113106
ExecutionTime = 3.14 s  ClockTime = 3 s

Time = 52

DILUPBiCGStab:  Solving for Ux, Initial residual = 0.0102605, Final residual = 2.84714e-05, No Iterations 1
DILUPBiCGStab:  Solving for Uy, Initial residual = 0.00933979, Final residual = 2.45411e-05, No Iterations 1
DILUPBiCGStab:  Solving for Uz, Initial residual = 0.0105026, Final residual = 2.31451e-05, No Iterations 1
DICPCG:  Solving for G, Initial residual = 0.000326852, Final residual = 3.09814e-05, No Iterations 23
DILUPBiCGStab:  Solving for h, Initial residual = 0.00229063, Final residual = 9.2005e-07, No Iterations 1
DICPCG:  Solving for p_rgh, Initial residual = 0.00966102, Final residual = 9.41975e-05, No Iterations 54
time step continuity errors : sum local = 2.99135e-06, global = 6.09001e-08, cumulative = 0.000113167
ExecutionTime = 3.21 s  ClockTime = 3 s

Time = 53

DILUPBiCGStab:  Solving for Ux, Initial residual = 0.00999159, Final residual = 2.76882e-05, No Iterations 1
DILUPBiCGStab:  Solving for Uy, Initial residual = 0.00912176, Final residual = 2.39471e-05, No Iterations 1
DILUPBiCGStab:  Solving for Uz, Initial residual = 0.0102699, Final residual = 2.25881e-05, No Iterations 1
DICPCG:  Solving for G, Initial residual = 0.00032499, Final residual = 3.05485e-05, No Iterations 23
DILUPBiCGStab:  Solving for h, Initial residual = 0.00227455, Final residual = 9.15123e-07, No Iterations 1
DICPCG:  Solving for p_rgh, Initial residual = 0.0094713, Final residual = 9.37263e-05, No Iterations 24
time step continuity errors : sum local = 2.96733e-06, global = 3.42435e-08, cumulative = 0.000113201
ExecutionTime = 3.27 s  ClockTime = 4 s

Time = 54

DILUPBiCGStab:  Solving for Ux, Initial residual = 0.00973527, Final residual = 2.6917e-05, No Iterations 1
DILUPBiCGStab:  Solving for Uy, Initial residual = 0.00892236, Final residual = 2.34205e-05, No Iterations 1
DILUPBiCGStab:  Solving for Uz, Initial residual = 0.010021, Final residual = 2.20262e-05, No Iterations 1
DICPCG:  Solving for G, Initial residual = 0.000323392, Final residual = 3.08615e-05, No Iterations 23
DILUPBiCGStab:  Solving for h, Initial residual = 0.00225925, Final residual = 9.1043e-07, No Iterations 1
DICPCG:  Solving for p_rgh, Initial residual = 0.00928428, Final residual = 8.84519e-05, No Iterations 28
time step continuity errors : sum local = 2.79166e-06, global = 1.14142e-07, cumulative = 0.000113315
ExecutionTime = 3.34 s  ClockTime = 4 s

Time = 55

DILUPBiCGStab:  Solving for Ux, Initial residual = 0.00950245, Final residual = 2.62161e-05, No Iterations 1
DILUPBiCGStab:  Solving for Uy, Initial residual = 0.00873227, Final residual = 2.29065e-05, No Iterations 1
DILUPBiCGStab:  Solving for Uz, Initial residual = 0.00977972, Final residual = 2.14854e-05, No Iterations 1
DICPCG:  Solving for G, Initial residual = 0.000321888, Final residual = 3.01164e-05, No Iterations 23
DILUPBiCGStab:  Solving for h, Initial residual = 0.00224471, Final residual = 9.05946e-07, No Iterations 1
DICPCG:  Solving for p_rgh, Initial residual = 0.0090871, Final residual = 8.57546e-05, No Iterations 29
time step continuity errors : sum local = 2.69861e-06, global = 4.32135e-07, cumulative = 0.000113747
ExecutionTime = 3.39 s  ClockTime = 4 s

Time = 56

DILUPBiCGStab:  Solving for Ux, Initial residual = 0.00927299, Final residual = 2.55297e-05, No Iterations 1
DILUPBiCGStab:  Solving for Uy, Initial residual = 0.00854081, Final residual = 2.23845e-05, No Iterations 1
DILUPBiCGStab:  Solving for Uz, Initial residual = 0.00955178, Final residual = 2.09784e-05, No Iterations 1
DICPCG:  Solving for G, Initial residual = 0.000320536, Final residual = 3.06563e-05, No Iterations 23
DILUPBiCGStab:  Solving for h, Initial residual = 0.00223093, Final residual = 9.016e-07, No Iterations 1
DICPCG:  Solving for p_rgh, Initial residual = 0.00889939, Final residual = 8.61403e-05, No Iterations 55
time step continuity errors : sum local = 2.70327e-06, global = 5.10501e-08, cumulative = 0.000113798
ExecutionTime = 3.46 s  ClockTime = 4 s

Time = 57

DILUPBiCGStab:  Solving for Ux, Initial residual = 0.00904239, Final residual = 2.48505e-05, No Iterations 1
DILUPBiCGStab:  Solving for Uy, Initial residual = 0.00835622, Final residual = 2.18726e-05, No Iterations 1
DILUPBiCGStab:  Solving for Uz, Initial residual = 0.00934607, Final residual = 2.05061e-05, No Iterations 1
DICPCG:  Solving for G, Initial residual = 0.000319325, Final residual = 3.04484e-05, No Iterations 23
DILUPBiCGStab:  Solving for h, Initial residual = 0.00221774, Final residual = 8.97597e-07, No Iterations 1
DICPCG:  Solving for p_rgh, Initial residual = 0.00875255, Final residual = 8.39453e-05, No Iterations 26
time step continuity errors : sum local = 2.62801e-06, global = 1.32949e-07, cumulative = 0.000113931
ExecutionTime = 3.51 s  ClockTime = 4 s

Time = 58

DILUPBiCGStab:  Solving for Ux, Initial residual = 0.00882465, Final residual = 2.41874e-05, No Iterations 1
DILUPBiCGStab:  Solving for Uy, Initial residual = 0.00819053, Final residual = 2.14294e-05, No Iterations 1
DILUPBiCGStab:  Solving for Uz, Initial residual = 0.0091267, Final residual = 2.00285e-05, No Iterations 1
DICPCG:  Solving for G, Initial residual = 0.000318185, Final residual = 3.06426e-05, No Iterations 23
DILUPBiCGStab:  Solving for h, Initial residual = 0.00220524, Final residual = 8.93773e-07, No Iterations 1
DICPCG:  Solving for p_rgh, Initial residual = 0.00859829, Final residual = 8.46762e-05, No Iterations 29
time step continuity errors : sum local = 2.6443e-06, global = 3.27309e-07, cumulative = 0.000114259
ExecutionTime = 3.58 s  ClockTime = 4 s

Time = 59

DILUPBiCGStab:  Solving for Ux, Initial residual = 0.00862749, Final residual = 2.35893e-05, No Iterations 1
DILUPBiCGStab:  Solving for Uy, Initial residual = 0.00802528, Final residual = 2.09701e-05, No Iterations 1
DILUPBiCGStab:  Solving for Uz, Initial residual = 0.00891569, Final residual = 1.95701e-05, No Iterations 1
DICPCG:  Solving for G, Initial residual = 0.000317403, Final residual = 3.0532e-05, No Iterations 23
DILUPBiCGStab:  Solving for h, Initial residual = 0.00219337, Final residual = 8.90076e-07, No Iterations 1
DICPCG:  Solving for p_rgh, Initial residual = 0.00843417, Final residual = 8.02538e-05, No Iterations 31
time step continuity errors : sum local = 2.50033e-06, global = 6.98891e-07, cumulative = 0.000114958
ExecutionTime = 3.64 s  ClockTime = 4 s

Time = 60

DILUPBiCGStab:  Solving for Ux, Initial residual = 0.00843184, Final residual = 2.29973e-05, No Iterations 1
DILUPBiCGStab:  Solving for Uy, Initial residual = 0.00786217, Final residual = 2.0523e-05, No Iterations 1
DILUPBiCGStab:  Solving for Uz, Initial residual = 0.00871517, Final residual = 1.91357e-05, No Iterations 1
DICPCG:  Solving for G, Initial residual = 0.000316398, Final residual = 3.06187e-05, No Iterations 23
DILUPBiCGStab:  Solving for h, Initial residual = 0.00218208, Final residual = 8.86609e-07, No Iterations 1
DICPCG:  Solving for p_rgh, Initial residual = 0.00829357, Final residual = 7.35361e-05, No Iterations 56
time step continuity errors : sum local = 2.28601e-06, global = 2.95338e-08, cumulative = 0.000114987
ExecutionTime = 3.72 s  ClockTime = 4 s

Time = 61

DILUPBiCGStab:  Solving for Ux, Initial residual = 0.00822819, Final residual = 2.23958e-05, No Iterations 1
DILUPBiCGStab:  Solving for Uy, Initial residual = 0.00770431, Final residual = 2.00698e-05, No Iterations 1
DILUPBiCGStab:  Solving for Uz, Initial residual = 0.00854009, Final residual = 1.87395e-05, No Iterations 1
DICPCG:  Solving for G, Initial residual = 0.000315655, Final residual = 3.0501e-05, No Iterations 23
DILUPBiCGStab:  Solving for h, Initial residual = 0.00217133, Final residual = 8.83319e-07, No Iterations 1
DICPCG:  Solving for p_rgh, Initial residual = 0.00817248, Final residual = 7.62108e-05, No Iterations 27
time step continuity errors : sum local = 2.36481e-06, global = -1.53363e-08, cumulative = 0.000114972
ExecutionTime = 3.77 s  ClockTime = 4 s

Time = 62

DILUPBiCGStab:  Solving for Ux, Initial residual = 0.00804387, Final residual = 2.18264e-05, No Iterations 1
DILUPBiCGStab:  Solving for Uy, Initial residual = 0.00756417, Final residual = 1.96918e-05, No Iterations 1
DILUPBiCGStab:  Solving for Uz, Initial residual = 0.00834459, Final residual = 1.83293e-05, No Iterations 1
DICPCG:  Solving for G, Initial residual = 0.000315008, Final residual = 3.06392e-05, No Iterations 23
DILUPBiCGStab:  Solving for h, Initial residual = 0.00216111, Final residual = 8.80203e-07, No Iterations 1
DICPCG:  Solving for p_rgh, Initial residual = 0.0080345, Final residual = 6.33936e-05, No Iterations 30
time step continuity errors : sum local = 1.96307e-06, global = 8.01117e-09, cumulative = 0.00011498
ExecutionTime = 3.84 s  ClockTime = 4 s

Time = 63

DILUPBiCGStab:  Solving for Ux, Initial residual = 0.00787719, Final residual = 2.13157e-05, No Iterations 1
DILUPBiCGStab:  Solving for Uy, Initial residual = 0.00742022, Final residual = 1.92951e-05, No Iterations 1
DILUPBiCGStab:  Solving for Uz, Initial residual = 0.00815802, Final residual = 1.79376e-05, No Iterations 1
DICPCG:  Solving for G, Initial residual = 0.000314307, Final residual = 3.03779e-05, No Iterations 23
DILUPBiCGStab:  Solving for h, Initial residual = 0.0021513, Final residual = 8.77178e-07, No Iterations 1
DICPCG:  Solving for p_rgh, Initial residual = 0.00789424, Final residual = 6.75936e-05, No Iterations 30
time step continuity errors : sum local = 2.08907e-06, global = 2.7749e-07, cumulative = 0.000115257
ExecutionTime = 3.89 s  ClockTime = 4 s

Time = 64

DILUPBiCGStab:  Solving for Ux, Initial residual = 0.00770694, Final residual = 2.07944e-05, No Iterations 1
DILUPBiCGStab:  Solving for Uy, Initial residual = 0.00727873, Final residual = 1.89007e-05, No Iterations 1
DILUPBiCGStab:  Solving for Uz, Initial residual = 0.00798141, Final residual = 1.75649e-05, No Iterations 1
DICPCG:  Solving for G, Initial residual = 0.000313754, Final residual = 3.05227e-05, No Iterations 23
DILUPBiCGStab:  Solving for h, Initial residual = 0.00214181, Final residual = 8.74292e-07, No Iterations 1
DICPCG:  Solving for p_rgh, Initial residual = 0.00776382, Final residual = 7.46948e-05, No Iterations 33
time step continuity errors : sum local = 2.30429e-06, global = 7.51115e-07, cumulative = 0.000116008
ExecutionTime = 3.96 s  ClockTime = 4 s

Time = 65

DILUPBiCGStab:  Solving for Ux, Initial residual = 0.00754289, Final residual = 2.02938e-05, No Iterations 1
DILUPBiCGStab:  Solving for Uy, Initial residual = 0.00714505, Final residual = 1.85287e-05, No Iterations 1
DILUPBiCGStab:  Solving for Uz, Initial residual = 0.00781161, Final residual = 1.72075e-05, No Iterations 1
DICPCG:  Solving for G, Initial residual = 0.000313324, Final residual = 3.03114e-05, No Iterations 23
DILUPBiCGStab:  Solving for h, Initial residual = 0.00213272, Final residual = 8.7147e-07, No Iterations 1
DICPCG:  Solving for p_rgh, Initial residual = 0.00764855, Final residual = 7.24154e-05, No Iterations 56
time step continuity errors : sum local = 2.23015e-06, global = 2.70471e-08, cumulative = 0.000116036
ExecutionTime = 4.02 s  ClockTime = 4 s

Time = 66

DILUPBiCGStab:  Solving for Ux, Initial residual = 0.00737354, Final residual = 1.97917e-05, No Iterations 1
DILUPBiCGStab:  Solving for Uy, Initial residual = 0.00701557, Final residual = 1.81476e-05, No Iterations 1
DILUPBiCGStab:  Solving for Uz, Initial residual = 0.00766632, Final residual = 1.68872e-05, No Iterations 1
DICPCG:  Solving for G, Initial residual = 0.000312822, Final residual = 3.03142e-05, No Iterations 23
DILUPBiCGStab:  Solving for h, Initial residual = 0.00212397, Final residual = 8.68783e-07, No Iterations 1
DICPCG:  Solving for p_rgh, Initial residual = 0.00755772, Final residual = 7.21766e-05, No Iterations 29
time step continuity errors : sum local = 2.21977e-06, global = 1.24539e-08, cumulative = 0.000116048
ExecutionTime = 4.08 s  ClockTime = 4 s

Time = 67

DILUPBiCGStab:  Solving for Ux, Initial residual = 0.00722385, Final residual = 1.93249e-05, No Iterations 1
DILUPBiCGStab:  Solving for Uy, Initial residual = 0.00689782, Final residual = 1.7826e-05, No Iterations 1
DILUPBiCGStab:  Solving for Uz, Initial residual = 0.00749975, Final residual = 1.65471e-05, No Iterations 1
DICPCG:  Solving for G, Initial residual = 0.000312517, Final residual = 3.0253e-05, No Iterations 23
DILUPBiCGStab:  Solving for h, Initial residual = 0.00211553, Final residual = 8.66209e-07, No Iterations 1
DICPCG:  Solving for p_rgh, Initial residual = 0.00744798, Final residual = 6.42635e-05, No Iterations 30
time step continuity errors : sum local = 1.9733e-06, global = -1.17446e-08, cumulative = 0.000116036
ExecutionTime = 4.13 s  ClockTime = 4 s

Time = 68

DILUPBiCGStab:  Solving for Ux, Initial residual = 0.00708201, Final residual = 1.8888e-05, No Iterations 1
DILUPBiCGStab:  Solving for Uy, Initial residual = 0.00677453, Final residual = 1.74819e-05, No Iterations 1
DILUPBiCGStab:  Solving for Uz, Initial residual = 0.00734165, Final residual = 1.62228e-05, No Iterations 1
DICPCG:  Solving for G, Initial residual = 0.000312141, Final residual = 2.99492e-05, No Iterations 23
DILUPBiCGStab:  Solving for h, Initial residual = 0.00210727, Final residual = 8.63691e-07, No Iterations 1
DICPCG:  Solving for p_rgh, Initial residual = 0.00733632, Final residual = 6.74849e-05, No Iterations 30
time step continuity errors : sum local = 2.0691e-06, global = 2.51107e-07, cumulative = 0.000116287
ExecutionTime = 4.19 s  ClockTime = 4 s

Time = 69

DILUPBiCGStab:  Solving for Ux, Initial residual = 0.00694002, Final residual = 1.84515e-05, No Iterations 1
DILUPBiCGStab:  Solving for Uy, Initial residual = 0.00665525, Final residual = 1.71448e-05, No Iterations 1
DILUPBiCGStab:  Solving for Uz, Initial residual = 0.00719204, Final residual = 1.59137e-05, No Iterations 1
DICPCG:  Solving for G, Initial residual = 0.000311943, Final residual = 3.01865e-05, No Iterations 23
DILUPBiCGStab:  Solving for h, Initial residual = 0.00209919, Final residual = 8.61292e-07, No Iterations 1
DICPCG:  Solving for p_rgh, Initial residual = 0.00722951, Final residual = 7.18379e-05, No Iterations 33
time step continuity errors : sum local = 2.19943e-06, global = 7.27936e-07, cumulative = 0.000117015
ExecutionTime = 4.24 s  ClockTime = 4 s

Time = 70

DILUPBiCGStab:  Solving for Ux, Initial residual = 0.00680365, Final residual = 1.80337e-05, No Iterations 1
DILUPBiCGStab:  Solving for Uy, Initial residual = 0.006542, Final residual = 1.68259e-05, No Iterations 1
DILUPBiCGStab:  Solving for Uz, Initial residual = 0.00704837, Final residual = 1.56166e-05, No Iterations 1
DICPCG:  Solving for G, Initial residual = 0.00031172, Final residual = 2.95723e-05, No Iterations 23
DILUPBiCGStab:  Solving for h, Initial residual = 0.00209136, Final residual = 8.59108e-07, No Iterations 1
DICPCG:  Solving for p_rgh, Initial residual = 0.00713386, Final residual = 6.94153e-05, No Iterations 56
time step continuity errors : sum local = 2.12242e-06, global = 2.55809e-08, cumulative = 0.000117041
ExecutionTime = 4.31 s  ClockTime = 5 s

Time = 71

DILUPBiCGStab:  Solving for Ux, Initial residual = 0.00666113, Final residual = 1.76108e-05, No Iterations 1
DILUPBiCGStab:  Solving for Uy, Initial residual = 0.00643239, Final residual = 1.64978e-05, No Iterations 1
DILUPBiCGStab:  Solving for Uz, Initial residual = 0.00692804, Final residual = 1.53555e-05, No Iterations 1
DICPCG:  Solving for G, Initial residual = 0.00031153, Final residual = 3.00448e-05, No Iterations 23
DILUPBiCGStab:  Solving for h, Initial residual = 0.00208378, Final residual = 8.56998e-07, No Iterations 1
DICPCG:  Solving for p_rgh, Initial residual = 0.00706234, Final residual = 5.99453e-05, No Iterations 30
time step continuity errors : sum local = 1.83102e-06, global = 2.77439e-08, cumulative = 0.000117069
ExecutionTime = 4.37 s  ClockTime = 5 s

Time = 72

DILUPBiCGStab:  Solving for Ux, Initial residual = 0.00653571, Final residual = 1.72173e-05, No Iterations 1
DILUPBiCGStab:  Solving for Uy, Initial residual = 0.00633173, Final residual = 1.62222e-05, No Iterations 1
DILUPBiCGStab:  Solving for Uz, Initial residual = 0.00678636, Final residual = 1.50725e-05, No Iterations 1
DICPCG:  Solving for G, Initial residual = 0.000311336, Final residual = 2.97842e-05, No Iterations 23
DILUPBiCGStab:  Solving for h, Initial residual = 0.00207644, Final residual = 8.54984e-07, No Iterations 1
DICPCG:  Solving for p_rgh, Initial residual = 0.00697239, Final residual = 6.49612e-05, No Iterations 30
time step continuity errors : sum local = 1.98177e-06, global = 1.64857e-08, cumulative = 0.000117085
ExecutionTime = 4.43 s  ClockTime = 5 s

Time = 73

DILUPBiCGStab:  Solving for Ux, Initial residual = 0.00641508, Final residual = 1.68443e-05, No Iterations 1
DILUPBiCGStab:  Solving for Uy, Initial residual = 0.00622527, Final residual = 1.59207e-05, No Iterations 1
DILUPBiCGStab:  Solving for Uz, Initial residual = 0.00665184, Final residual = 1.48021e-05, No Iterations 1
DICPCG:  Solving for G, Initial residual = 0.000311316, Final residual = 3.00258e-05, No Iterations 23
DILUPBiCGStab:  Solving for h, Initial residual = 0.00206932, Final residual = 8.53055e-07, No Iterations 1
DICPCG:  Solving for p_rgh, Initial residual = 0.00687401, Final residual = 5.85603e-05, No Iterations 31
time step continuity errors : sum local = 1.78445e-06, global = 2.90035e-07, cumulative = 0.000117375
ExecutionTime = 4.48 s  ClockTime = 5 s

Time = 74

DILUPBiCGStab:  Solving for Ux, Initial residual = 0.00629604, Final residual = 1.64779e-05, No Iterations 1
DILUPBiCGStab:  Solving for Uy, Initial residual = 0.00612206, Final residual = 1.56254e-05, No Iterations 1
DILUPBiCGStab:  Solving for Uz, Initial residual = 0.00652479, Final residual = 1.45455e-05, No Iterations 1
DICPCG:  Solving for G, Initial residual = 0.000311182, Final residual = 2.95803e-05, No Iterations 23
DILUPBiCGStab:  Solving for h, Initial residual = 0.00206243, Final residual = 8.51175e-07, No Iterations 1
DICPCG:  Solving for p_rgh, Initial residual = 0.00678342, Final residual = 5.95481e-05, No Iterations 57
time step continuity errors : sum local = 1.81263e-06, global = 2.45296e-08, cumulative = 0.0001174
ExecutionTime = 4.56 s  ClockTime = 5 s

Time = 75

DILUPBiCGStab:  Solving for Ux, Initial residual = 0.00617601, Final residual = 1.61181e-05, No Iterations 1
DILUPBiCGStab:  Solving for Uy, Initial residual = 0.00602317, Final residual = 1.53303e-05, No Iterations 1
DILUPBiCGStab:  Solving for Uz, Initial residual = 0.00641323, Final residual = 1.43117e-05, No Iterations 1
DICPCG:  Solving for G, Initial residual = 0.000311216, Final residual = 3.00201e-05, No Iterations 23
DILUPBiCGStab:  Solving for h, Initial residual = 0.00205566, Final residual = 8.49325e-07, No Iterations 1
DICPCG:  Solving for p_rgh, Initial residual = 0.00671161, Final residual = 6.34328e-05, No Iterations 30
time step continuity errors : sum local = 1.92923e-06, global = 2.26219e-07, cumulative = 0.000117626
ExecutionTime = 4.61 s  ClockTime = 5 s

Time = 76

DILUPBiCGStab:  Solving for Ux, Initial residual = 0.00606304, Final residual = 1.57656e-05, No Iterations 1
DILUPBiCGStab:  Solving for Uy, Initial residual = 0.00593436, Final residual = 1.50855e-05, No Iterations 1
DILUPBiCGStab:  Solving for Uz, Initial residual = 0.00629051, Final residual = 1.40685e-05, No Iterations 1
DICPCG:  Solving for G, Initial residual = 0.000311371, Final residual = 3.00731e-05, No Iterations 23
DILUPBiCGStab:  Solving for h, Initial residual = 0.00204901, Final residual = 8.47464e-07, No Iterations 1
DICPCG:  Solving for p_rgh, Initial residual = 0.00663679, Final residual = 5.70926e-05, No Iterations 32
time step continuity errors : sum local = 1.73467e-06, global = 4.86824e-07, cumulative = 0.000118113
ExecutionTime = 4.66 s  ClockTime = 5 s

Time = 77

DILUPBiCGStab:  Solving for Ux, Initial residual = 0.00595702, Final residual = 1.54393e-05, No Iterations 1
DILUPBiCGStab:  Solving for Uy, Initial residual = 0.0058387, Final residual = 1.48136e-05, No Iterations 1
DILUPBiCGStab:  Solving for Uz, Initial residual = 0.00617375, Final residual = 1.3834e-05, No Iterations 1
DICPCG:  Solving for G, Initial residual = 0.000311545, Final residual = 2.99255e-05, No Iterations 23
DILUPBiCGStab:  Solving for h, Initial residual = 0.00204249, Final residual = 8.45606e-07, No Iterations 1
DICPCG:  Solving for p_rgh, Initial residual = 0.00655856, Final residual = 6.41429e-05, No Iterations 55
time step continuity errors : sum local = 1.94702e-06, global = 3.23153e-08, cumulative = 0.000118145
ExecutionTime = 4.73 s  ClockTime = 5 s

Time = 78

DILUPBiCGStab:  Solving for Ux, Initial residual = 0.0058462, Final residual = 1.51107e-05, No Iterations 1
DILUPBiCGStab:  Solving for Uy, Initial residual = 0.00574548, Final residual = 1.45341e-05, No Iterations 1
DILUPBiCGStab:  Solving for Uz, Initial residual = 0.00607629, Final residual = 1.36312e-05, No Iterations 1
DICPCG:  Solving for G, Initial residual = 0.000311521, Final residual = 2.99802e-05, No Iterations 23
DILUPBiCGStab:  Solving for h, Initial residual = 0.00203603, Final residual = 8.43783e-07, No Iterations 1
DICPCG:  Solving for p_rgh, Initial residual = 0.00649858, Final residual = 6.17649e-05, No Iterations 30
time step continuity errors : sum local = 1.87351e-06, global = 1.13486e-07, cumulative = 0.000118258
ExecutionTime = 4.79 s  ClockTime = 5 s

Time = 79

DILUPBiCGStab:  Solving for Ux, Initial residual = 0.00574557, Final residual = 1.47951e-05, No Iterations 1
DILUPBiCGStab:  Solving for Uy, Initial residual = 0.00566269, Final residual = 1.43053e-05, No Iterations 1
DILUPBiCGStab:  Solving for Uz, Initial residual = 0.00596402, Final residual = 1.34088e-05, No Iterations 1
DICPCG:  Solving for G, Initial residual = 0.000311703, Final residual = 2.98154e-05, No Iterations 23
DILUPBiCGStab:  Solving for h, Initial residual = 0.00202965, Final residual = 8.42024e-07, No Iterations 1
DICPCG:  Solving for p_rgh, Initial residual = 0.00643261, Final residual = 5.73417e-05, No Iterations 31
time step continuity errors : sum local = 1.73781e-06, global = 2.51433e-07, cumulative = 0.00011851
ExecutionTime = 4.84 s  ClockTime = 5 s

Time = 80

DILUPBiCGStab:  Solving for Ux, Initial residual = 0.00564834, Final residual = 1.44954e-05, No Iterations 1
DILUPBiCGStab:  Solving for Uy, Initial residual = 0.00557453, Final residual = 1.40564e-05, No Iterations 1
DILUPBiCGStab:  Solving for Uz, Initial residual = 0.00585765, Final residual = 1.31964e-05, No Iterations 1
DICPCG:  Solving for G, Initial residual = 0.000311714, Final residual = 2.98586e-05, No Iterations 23
DILUPBiCGStab:  Solving for h, Initial residual = 0.00202335, Final residual = 8.40322e-07, No Iterations 1
DICPCG:  Solving for p_rgh, Initial residual = 0.0063635, Final residual = 6.15285e-05, No Iterations 33
time step continuity errors : sum local = 1.86312e-06, global = 6.30155e-07, cumulative = 0.00011914
ExecutionTime = 4.91 s  ClockTime = 5 s

Time = 81

DILUPBiCGStab:  Solving for Ux, Initial residual = 0.00555283, Final residual = 1.4204e-05, No Iterations 1
DILUPBiCGStab:  Solving for Uy, Initial residual = 0.0054878, Final residual = 1.38088e-05, No Iterations 1
DILUPBiCGStab:  Solving for Uz, Initial residual = 0.00575681, Final residual = 1.29932e-05, No Iterations 1
DICPCG:  Solving for G, Initial residual = 0.000311921, Final residual = 2.97424e-05, No Iterations 23
DILUPBiCGStab:  Solving for h, Initial residual = 0.00201711, Final residual = 8.38708e-07, No Iterations 1
DICPCG:  Solving for p_rgh, Initial residual = 0.00629435, Final residual = 5.5285e-05, No Iterations 57
time step continuity errors : sum local = 1.67273e-06, global = 1.71577e-08, cumulative = 0.000119157
ExecutionTime = 4.98 s  ClockTime = 5 s

Time = 82

DILUPBiCGStab:  Solving for Ux, Initial residual = 0.00545277, Final residual = 1.39104e-05, No Iterations 1
DILUPBiCGStab:  Solving for Uy, Initial residual = 0.00540655, Final residual = 1.35666e-05, No Iterations 1
DILUPBiCGStab:  Solving for Uz, Initial residual = 0.00567543, Final residual = 1.28245e-05, No Iterations 1
DICPCG:  Solving for G, Initial residual = 0.000311991, Final residual = 2.97148e-05, No Iterations 23
DILUPBiCGStab:  Solving for h, Initial residual = 0.00201094, Final residual = 8.37154e-07, No Iterations 1
DICPCG:  Solving for p_rgh, Initial residual = 0.00625309, Final residual = 6.14206e-05, No Iterations 30
time step continuity errors : sum local = 1.85738e-06, global = 5.46485e-08, cumulative = 0.000119212
ExecutionTime = 5.03 s  ClockTime = 5 s

Time = 83

DILUPBiCGStab:  Solving for Ux, Initial residual = 0.00536277, Final residual = 1.36294e-05, No Iterations 1
DILUPBiCGStab:  Solving for Uy, Initial residual = 0.00533083, Final residual = 1.33602e-05, No Iterations 1
DILUPBiCGStab:  Solving for Uz, Initial residual = 0.00557476, Final residual = 1.26293e-05, No Iterations 1
DICPCG:  Solving for G, Initial residual = 0.000312179, Final residual = 2.96962e-05, No Iterations 23
DILUPBiCGStab:  Solving for h, Initial residual = 0.00200478, Final residual = 8.35582e-07, No Iterations 1
DICPCG:  Solving for p_rgh, Initial residual = 0.00619806, Final residual = 5.36926e-05, No Iterations 31
time step continuity errors : sum local = 1.62242e-06, global = 1.03693e-07, cumulative = 0.000119316
ExecutionTime = 5.09 s  ClockTime = 5 s

Time = 84

DILUPBiCGStab:  Solving for Ux, Initial residual = 0.0052776, Final residual = 1.33678e-05, No Iterations 1
DILUPBiCGStab:  Solving for Uy, Initial residual = 0.00524924, Final residual = 1.31284e-05, No Iterations 1
DILUPBiCGStab:  Solving for Uz, Initial residual = 0.00547904, Final residual = 1.24412e-05, No Iterations 1
DICPCG:  Solving for G, Initial residual = 0.000312331, Final residual = 2.94118e-05, No Iterations 23
DILUPBiCGStab:  Solving for h, Initial residual = 0.0019987, Final residual = 8.34031e-07, No Iterations 1
DICPCG:  Solving for p_rgh, Initial residual = 0.00613163, Final residual = 5.27253e-05, No Iterations 32
time step continuity errors : sum local = 1.59202e-06, global = 4.2316e-07, cumulative = 0.000119739
ExecutionTime = 5.15 s  ClockTime = 5 s

Time = 85

DILUPBiCGStab:  Solving for Ux, Initial residual = 0.00519255, Final residual = 1.31084e-05, No Iterations 1
DILUPBiCGStab:  Solving for Uy, Initial residual = 0.00517022, Final residual = 1.29023e-05, No Iterations 1
DILUPBiCGStab:  Solving for Uz, Initial residual = 0.00538878, Final residual = 1.22635e-05, No Iterations 1
DICPCG:  Solving for G, Initial residual = 0.000312443, Final residual = 2.95811e-05, No Iterations 23
DILUPBiCGStab:  Solving for h, Initial residual = 0.00199265, Final residual = 8.32531e-07, No Iterations 1
DICPCG:  Solving for p_rgh, Initial residual = 0.00606731, Final residual = 5.49705e-05, No Iterations 57
time step continuity errors : sum local = 1.65866e-06, global = 1.9292e-08, cumulative = 0.000119758
ExecutionTime = 5.22 s  ClockTime = 5 s

Time = 86

DILUPBiCGStab:  Solving for Ux, Initial residual = 0.00510474, Final residual = 1.28516e-05, No Iterations 1
DILUPBiCGStab:  Solving for Uy, Initial residual = 0.00509516, Final residual = 1.26811e-05, No Iterations 1
DILUPBiCGStab:  Solving for Uz, Initial residual = 0.00531483, Final residual = 1.21158e-05, No Iterations 1
DICPCG:  Solving for G, Initial residual = 0.000312651, Final residual = 2.9493e-05, No Iterations 23
DILUPBiCGStab:  Solving for h, Initial residual = 0.00198664, Final residual = 8.31048e-07, No Iterations 1
DICPCG:  Solving for p_rgh, Initial residual = 0.00602925, Final residual = 5.24976e-05, No Iterations 31
time step continuity errors : sum local = 1.58328e-06, global = 1.60177e-07, cumulative = 0.000119918
ExecutionTime = 5.29 s  ClockTime = 6 s

Time = 87

DILUPBiCGStab:  Solving for Ux, Initial residual = 0.0050238, Final residual = 1.26007e-05, No Iterations 1
DILUPBiCGStab:  Solving for Uy, Initial residual = 0.00502613, Final residual = 1.24931e-05, No Iterations 1
DILUPBiCGStab:  Solving for Uz, Initial residual = 0.00522568, Final residual = 1.19432e-05, No Iterations 1
DICPCG:  Solving for G, Initial residual = 0.000312909, Final residual = 2.948e-05, No Iterations 23
DILUPBiCGStab:  Solving for h, Initial residual = 0.00198067, Final residual = 8.29581e-07, No Iterations 1
DICPCG:  Solving for p_rgh, Initial residual = 0.00598136, Final residual = 4.982e-05, No Iterations 32
time step continuity errors : sum local = 1.50152e-06, global = 3.38575e-07, cumulative = 0.000120257
ExecutionTime = 5.34 s  ClockTime = 6 s

Time = 88

DILUPBiCGStab:  Solving for Ux, Initial residual = 0.00494687, Final residual = 1.23661e-05, No Iterations 1
DILUPBiCGStab:  Solving for Uy, Initial residual = 0.00495136, Final residual = 1.22804e-05, No Iterations 1
DILUPBiCGStab:  Solving for Uz, Initial residual = 0.00514048, Final residual = 1.17751e-05, No Iterations 1
DICPCG:  Solving for G, Initial residual = 0.00031301, Final residual = 2.928e-05, No Iterations 23
DILUPBiCGStab:  Solving for h, Initial residual = 0.00197473, Final residual = 8.28149e-07, No Iterations 1
DICPCG:  Solving for p_rgh, Initial residual = 0.0059229, Final residual = 5.12384e-05, No Iterations 56
time step continuity errors : sum local = 1.54332e-06, global = 2.19492e-08, cumulative = 0.000120279
ExecutionTime = 5.42 s  ClockTime = 6 s

Time = 89

DILUPBiCGStab:  Solving for Ux, Initial residual = 0.00486741, Final residual = 1.21343e-05, No Iterations 1
DILUPBiCGStab:  Solving for Uy, Initial residual = 0.00487823, Final residual = 1.20664e-05, No Iterations 1
DILUPBiCGStab:  Solving for Uz, Initial residual = 0.00507066, Final residual = 1.16344e-05, No Iterations 1
DICPCG:  Solving for G, Initial residual = 0.000313397, Final residual = 2.94209e-05, No Iterations 23
DILUPBiCGStab:  Solving for h, Initial residual = 0.00196885, Final residual = 8.26713e-07, No Iterations 1
DICPCG:  Solving for p_rgh, Initial residual = 0.00588117, Final residual = 5.35336e-05, No Iterations 31
time step continuity errors : sum local = 1.61177e-06, global = 1.80046e-07, cumulative = 0.000120459
ExecutionTime = 5.47 s  ClockTime = 6 s

Time = 90

DILUPBiCGStab:  Solving for Ux, Initial residual = 0.0047934, Final residual = 1.19048e-05, No Iterations 1
DILUPBiCGStab:  Solving for Uy, Initial residual = 0.00481305, Final residual = 1.1887e-05, No Iterations 1
DILUPBiCGStab:  Solving for Uz, Initial residual = 0.00498868, Final residual = 1.1473e-05, No Iterations 1
DICPCG:  Solving for G, Initial residual = 0.000313465, Final residual = 2.93277e-05, No Iterations 23
DILUPBiCGStab:  Solving for h, Initial residual = 0.00196302, Final residual = 8.25282e-07, No Iterations 1
DICPCG:  Solving for p_rgh, Initial residual = 0.00583198, Final residual = 5.34808e-05, No Iterations 32
time step continuity errors : sum local = 1.60928e-06, global = 4.12315e-07, cumulative = 0.000120871
ExecutionTime = 5.54 s  ClockTime = 6 s

Time = 91

DILUPBiCGStab:  Solving for Ux, Initial residual = 0.00472185, Final residual = 1.16875e-05, No Iterations 1
DILUPBiCGStab:  Solving for Uy, Initial residual = 0.00474328, Final residual = 1.16896e-05, No Iterations 1
DILUPBiCGStab:  Solving for Uz, Initial residual = 0.00491077, Final residual = 1.13186e-05, No Iterations 1
DICPCG:  Solving for G, Initial residual = 0.00031391, Final residual = 2.93664e-05, No Iterations 23
DILUPBiCGStab:  Solving for h, Initial residual = 0.0019573, Final residual = 8.23834e-07, No Iterations 1
DICPCG:  Solving for p_rgh, Initial residual = 0.00577786, Final residual = 5.12973e-05, No Iterations 56
time step continuity errors : sum local = 1.54279e-06, global = 2.04001e-08, cumulative = 0.000120891
ExecutionTime = 5.61 s  ClockTime = 6 s

Time = 92

DILUPBiCGStab:  Solving for Ux, Initial residual = 0.00464751, Final residual = 1.14737e-05, No Iterations 1
DILUPBiCGStab:  Solving for Uy, Initial residual = 0.00467444, Final residual = 1.14908e-05, No Iterations 1
DILUPBiCGStab:  Solving for Uz, Initial residual = 0.00484893, Final residual = 1.11922e-05, No Iterations 1
DICPCG:  Solving for G, Initial residual = 0.000314035, Final residual = 2.95128e-05, No Iterations 23
DILUPBiCGStab:  Solving for h, Initial residual = 0.00195166, Final residual = 8.22385e-07, No Iterations 1
DICPCG:  Solving for p_rgh, Initial residual = 0.00574365, Final residual = 5.27045e-05, No Iterations 31
time step continuity errors : sum local = 1.58467e-06, global = 1.36315e-07, cumulative = 0.000121028
ExecutionTime = 5.66 s  ClockTime = 6 s

Time = 93

DILUPBiCGStab:  Solving for Ux, Initial residual = 0.00457934, Final residual = 1.12627e-05, No Iterations 1
DILUPBiCGStab:  Solving for Uy, Initial residual = 0.00461293, Final residual = 1.13218e-05, No Iterations 1
DILUPBiCGStab:  Solving for Uz, Initial residual = 0.00477261, Final residual = 1.10397e-05, No Iterations 1
DICPCG:  Solving for G, Initial residual = 0.000314498, Final residual = 2.94658e-05, No Iterations 23
DILUPBiCGStab:  Solving for h, Initial residual = 0.00194616, Final residual = 8.20961e-07, No Iterations 1
DICPCG:  Solving for p_rgh, Initial residual = 0.00569933, Final residual = 4.85494e-05, No Iterations 32
time step continuity errors : sum local = 1.45912e-06, global = 3.10576e-07, cumulative = 0.000121338
ExecutionTime = 5.72 s  ClockTime = 6 s

Time = 94

DILUPBiCGStab:  Solving for Ux, Initial residual = 0.00451331, Final residual = 1.10627e-05, No Iterations 1
DILUPBiCGStab:  Solving for Uy, Initial residual = 0.00454704, Final residual = 1.11353e-05, No Iterations 1
DILUPBiCGStab:  Solving for Uz, Initial residual = 0.00469981, Final residual = 1.08925e-05, No Iterations 1
DICPCG:  Solving for G, Initial residual = 0.000314696, Final residual = 2.95963e-05, No Iterations 23
DILUPBiCGStab:  Solving for h, Initial residual = 0.00194076, Final residual = 8.19533e-07, No Iterations 1
DICPCG:  Solving for p_rgh, Initial residual = 0.0056491, Final residual = 5.06625e-05, No Iterations 56
time step continuity errors : sum local = 1.52202e-06, global = 2.19459e-08, cumulative = 0.00012136
ExecutionTime = 5.79 s  ClockTime = 6 s

Time = 95

DILUPBiCGStab:  Solving for Ux, Initial residual = 0.00444506, Final residual = 1.08664e-05, No Iterations 1
DILUPBiCGStab:  Solving for Uy, Initial residual = 0.00448168, Final residual = 1.09492e-05, No Iterations 1
DILUPBiCGStab:  Solving for Uz, Initial residual = 0.00464079, Final residual = 1.07692e-05, No Iterations 1
DICPCG:  Solving for G, Initial residual = 0.000315236, Final residual = 2.9578e-05, No Iterations 23
DILUPBiCGStab:  Solving for h, Initial residual = 0.0019354, Final residual = 8.18097e-07, No Iterations 1
DICPCG:  Solving for p_rgh, Initial residual = 0.00561675, Final residual = 5.38457e-05, No Iterations 31
time step continuity errors : sum local = 1.61729e-06, global = 1.85924e-07, cumulative = 0.000121546
ExecutionTime = 5.84 s  ClockTime = 6 s

Time = 96

DILUPBiCGStab:  Solving for Ux, Initial residual = 0.00438154, Final residual = 1.06707e-05, No Iterations 1
DILUPBiCGStab:  Solving for Uy, Initial residual = 0.00442396, Final residual = 1.07912e-05, No Iterations 1
DILUPBiCGStab:  Solving for Uz, Initial residual = 0.00456998, Final residual = 1.06253e-05, No Iterations 1
DICPCG:  Solving for G, Initial residual = 0.000315515, Final residual = 2.95127e-05, No Iterations 23
DILUPBiCGStab:  Solving for h, Initial residual = 0.00193009, Final residual = 8.16695e-07, No Iterations 1
DICPCG:  Solving for p_rgh, Initial residual = 0.00557514, Final residual = 5.44596e-05, No Iterations 32
time step continuity errors : sum local = 1.63513e-06, global = 4.28588e-07, cumulative = 0.000121975
ExecutionTime = 5.9 s  ClockTime = 6 s

Time = 97

DILUPBiCGStab:  Solving for Ux, Initial residual = 0.00432019, Final residual = 1.04866e-05, No Iterations 1
DILUPBiCGStab:  Solving for Uy, Initial residual = 0.00436169, Final residual = 1.06157e-05, No Iterations 1
DILUPBiCGStab:  Solving for Uz, Initial residual = 0.00450241, Final residual = 1.0486e-05, No Iterations 1
DICPCG:  Solving for G, Initial residual = 0.000315916, Final residual = 2.94937e-05, No Iterations 23
DILUPBiCGStab:  Solving for h, Initial residual = 0.00192478, Final residual = 8.15327e-07, No Iterations 1
DICPCG:  Solving for p_rgh, Initial residual = 0.00552911, Final residual = 4.98161e-05, No Iterations 56
time step continuity errors : sum local = 1.4952e-06, global = 1.88831e-08, cumulative = 0.000121994
[...]
DILUPBiCGStab:  Solving for Uz, Initial residual = 1.27007e-05, Final residual = 4.01359e-07, No Iterations 1
DICPCG:  Solving for G, Initial residual = 0.00012031, Final residual = 1.18816e-05, No Iterations 21
DILUPBiCGStab:  Solving for h, Initial residual = 0.000325804, Final residual = 1.51375e-07, No Iterations 1
DICPCG:  Solving for p_rgh, Initial residual = 3.96144e-05, Final residual = 9.47563e-07, No Iterations 57
time step continuity errors : sum local = 4.70043e-08, global = 2.42156e-10, cumulative = 0.000148819
ExecutionTime = 339 s  ClockTime = 342 s

Time = 4977

DILUPBiCGStab:  Solving for Ux, Initial residual = 7.16463e-06, Final residual = 2.42126e-07, No Iterations 1
DILUPBiCGStab:  Solving for Uy, Initial residual = 1.88398e-05, Final residual = 7.48835e-07, No Iterations 1
DILUPBiCGStab:  Solving for Uz, Initial residual = 1.26989e-05, Final residual = 4.01302e-07, No Iterations 1
DICPCG:  Solving for G, Initial residual = 0.00012031, Final residual = 1.18343e-05, No Iterations 21
DILUPBiCGStab:  Solving for h, Initial residual = 0.000325791, Final residual = 1.51368e-07, No Iterations 1
DICPCG:  Solving for p_rgh, Initial residual = 3.96034e-05, Final residual = 9.38571e-07, No Iterations 57
time step continuity errors : sum local = 4.65579e-08, global = 2.39993e-10, cumulative = 0.000148819
ExecutionTime = 339.06 s  ClockTime = 342 s

Time = 4978

DILUPBiCGStab:  Solving for Ux, Initial residual = 7.16404e-06, Final residual = 2.42122e-07, No Iterations 1
DILUPBiCGStab:  Solving for Uy, Initial residual = 1.884e-05, Final residual = 7.4894e-07, No Iterations 1
DILUPBiCGStab:  Solving for Uz, Initial residual = 1.26971e-05, Final residual = 4.0125e-07, No Iterations 1
DICPCG:  Solving for G, Initial residual = 0.000120296, Final residual = 1.18815e-05, No Iterations 21
DILUPBiCGStab:  Solving for h, Initial residual = 0.000325777, Final residual = 1.51361e-07, No Iterations 1
DICPCG:  Solving for p_rgh, Initial residual = 3.96052e-05, Final residual = 9.49637e-07, No Iterations 57
time step continuity errors : sum local = 4.71066e-08, global = 2.42863e-10, cumulative = 0.000148819
ExecutionTime = 339.13 s  ClockTime = 342 s

Time = 4979

DILUPBiCGStab:  Solving for Ux, Initial residual = 7.16409e-06, Final residual = 2.42105e-07, No Iterations 1
DILUPBiCGStab:  Solving for Uy, Initial residual = 1.88375e-05, Final residual = 7.48754e-07, No Iterations 1
DILUPBiCGStab:  Solving for Uz, Initial residual = 1.26952e-05, Final residual = 4.01186e-07, No Iterations 1
DICPCG:  Solving for G, Initial residual = 0.000120297, Final residual = 1.18334e-05, No Iterations 21
DILUPBiCGStab:  Solving for h, Initial residual = 0.000325764, Final residual = 1.51355e-07, No Iterations 1
DICPCG:  Solving for p_rgh, Initial residual = 3.96049e-05, Final residual = 9.4553e-07, No Iterations 57
time step continuity errors : sum local = 4.69026e-08, global = 2.42221e-10, cumulative = 0.00014882
ExecutionTime = 339.2 s  ClockTime = 342 s

Time = 4980

DILUPBiCGStab:  Solving for Ux, Initial residual = 7.16367e-06, Final residual = 2.42083e-07, No Iterations 1
DILUPBiCGStab:  Solving for Uy, Initial residual = 1.88364e-05, Final residual = 7.48689e-07, No Iterations 1
DILUPBiCGStab:  Solving for Uz, Initial residual = 1.26934e-05, Final residual = 4.01131e-07, No Iterations 1
DICPCG:  Solving for G, Initial residual = 0.000120284, Final residual = 1.1885e-05, No Iterations 21
DILUPBiCGStab:  Solving for h, Initial residual = 0.000325751, Final residual = 1.51348e-07, No Iterations 1
DICPCG:  Solving for p_rgh, Initial residual = 3.9594e-05, Final residual = 9.40017e-07, No Iterations 57
time step continuity errors : sum local = 4.66289e-08, global = 2.40124e-10, cumulative = 0.00014882
ExecutionTime = 339.28 s  ClockTime = 342 s

Time = 4981

DILUPBiCGStab:  Solving for Ux, Initial residual = 7.16309e-06, Final residual = 2.42083e-07, No Iterations 1
DILUPBiCGStab:  Solving for Uy, Initial residual = 1.88366e-05, Final residual = 7.48749e-07, No Iterations 1
DILUPBiCGStab:  Solving for Uz, Initial residual = 1.26917e-05, Final residual = 4.01077e-07, No Iterations 1
DICPCG:  Solving for G, Initial residual = 0.000120284, Final residual = 1.18343e-05, No Iterations 21
DILUPBiCGStab:  Solving for h, Initial residual = 0.000325737, Final residual = 1.51342e-07, No Iterations 1
DICPCG:  Solving for p_rgh, Initial residual = 3.95956e-05, Final residual = 9.48056e-07, No Iterations 57
time step continuity errors : sum local = 4.70274e-08, global = 2.42925e-10, cumulative = 0.00014882
ExecutionTime = 339.35 s  ClockTime = 342 s

Time = 4982

DILUPBiCGStab:  Solving for Ux, Initial residual = 7.16312e-06, Final residual = 2.42063e-07, No Iterations 1
DILUPBiCGStab:  Solving for Uy, Initial residual = 1.88342e-05, Final residual = 7.48609e-07, No Iterations 1
DILUPBiCGStab:  Solving for Uz, Initial residual = 1.26897e-05, Final residual = 4.01016e-07, No Iterations 1
DICPCG:  Solving for G, Initial residual = 0.000120274, Final residual = 1.18929e-05, No Iterations 21
DILUPBiCGStab:  Solving for h, Initial residual = 0.000325724, Final residual = 1.51335e-07, No Iterations 1
DICPCG:  Solving for p_rgh, Initial residual = 3.95954e-05, Final residual = 9.47072e-07, No Iterations 57
time step continuity errors : sum local = 4.69783e-08, global = 2.42352e-10, cumulative = 0.00014882
ExecutionTime = 339.43 s  ClockTime = 342 s

Time = 4983

DILUPBiCGStab:  Solving for Ux, Initial residual = 7.16272e-06, Final residual = 2.42045e-07, No Iterations 1
DILUPBiCGStab:  Solving for Uy, Initial residual = 1.88331e-05, Final residual = 7.485e-07, No Iterations 1
DILUPBiCGStab:  Solving for Uz, Initial residual = 1.26879e-05, Final residual = 4.0096e-07, No Iterations 1
DICPCG:  Solving for G, Initial residual = 0.000120271, Final residual = 1.18365e-05, No Iterations 21
DILUPBiCGStab:  Solving for h, Initial residual = 0.000325711, Final residual = 1.51329e-07, No Iterations 1
DICPCG:  Solving for p_rgh, Initial residual = 3.95844e-05, Final residual = 9.38281e-07, No Iterations 57
time step continuity errors : sum local = 4.65421e-08, global = 2.40195e-10, cumulative = 0.00014882
ExecutionTime = 339.49 s  ClockTime = 342 s

Time = 4984

DILUPBiCGStab:  Solving for Ux, Initial residual = 7.16213e-06, Final residual = 2.42042e-07, No Iterations 1
DILUPBiCGStab:  Solving for Uy, Initial residual = 1.88332e-05, Final residual = 7.48601e-07, No Iterations 1
DILUPBiCGStab:  Solving for Uz, Initial residual = 1.26862e-05, Final residual = 4.00908e-07, No Iterations 1
DICPCG:  Solving for G, Initial residual = 0.000120267, Final residual = 1.1906e-05, No Iterations 21
DILUPBiCGStab:  Solving for h, Initial residual = 0.000325697, Final residual = 1.51322e-07, No Iterations 1
DICPCG:  Solving for p_rgh, Initial residual = 3.95862e-05, Final residual = 9.49139e-07, No Iterations 57
time step continuity errors : sum local = 4.70804e-08, global = 2.43061e-10, cumulative = 0.000148821
ExecutionTime = 339.56 s  ClockTime = 342 s

Time = 4985

DILUPBiCGStab:  Solving for Ux, Initial residual = 7.16218e-06, Final residual = 2.42025e-07, No Iterations 1
DILUPBiCGStab:  Solving for Uy, Initial residual = 1.88308e-05, Final residual = 7.48419e-07, No Iterations 1
DILUPBiCGStab:  Solving for Uz, Initial residual = 1.26843e-05, Final residual = 4.00845e-07, No Iterations 1
DICPCG:  Solving for G, Initial residual = 0.000120259, Final residual = 1.18397e-05, No Iterations 21
DILUPBiCGStab:  Solving for h, Initial residual = 0.000325684, Final residual = 1.51316e-07, No Iterations 1
DICPCG:  Solving for p_rgh, Initial residual = 3.95859e-05, Final residual = 9.45299e-07, No Iterations 57
time step continuity errors : sum local = 4.68897e-08, global = 2.42427e-10, cumulative = 0.000148821
ExecutionTime = 339.63 s  ClockTime = 343 s

Time = 4986

DILUPBiCGStab:  Solving for Ux, Initial residual = 7.16176e-06, Final residual = 2.42003e-07, No Iterations 1
DILUPBiCGStab:  Solving for Uy, Initial residual = 1.88297e-05, Final residual = 7.48349e-07, No Iterations 1
DILUPBiCGStab:  Solving for Uz, Initial residual = 1.26825e-05, Final residual = 4.0079e-07, No Iterations 1
DICPCG:  Solving for G, Initial residual = 0.000120258, Final residual = 1.19255e-05, No Iterations 21
DILUPBiCGStab:  Solving for h, Initial residual = 0.000325671, Final residual = 1.51309e-07, No Iterations 1
DICPCG:  Solving for p_rgh, Initial residual = 3.95749e-05, Final residual = 9.39573e-07, No Iterations 57
time step continuity errors : sum local = 4.66054e-08, global = 2.40315e-10, cumulative = 0.000148821
ExecutionTime = 339.7 s  ClockTime = 343 s

Time = 4987

DILUPBiCGStab:  Solving for Ux, Initial residual = 7.16118e-06, Final residual = 2.42003e-07, No Iterations 1
DILUPBiCGStab:  Solving for Uy, Initial residual = 1.88299e-05, Final residual = 7.48413e-07, No Iterations 1
DILUPBiCGStab:  Solving for Uz, Initial residual = 1.26807e-05, Final residual = 4.00737e-07, No Iterations 1
DICPCG:  Solving for G, Initial residual = 0.000120247, Final residual = 1.18497e-05, No Iterations 21
DILUPBiCGStab:  Solving for h, Initial residual = 0.000325657, Final residual = 1.51302e-07, No Iterations 1
DICPCG:  Solving for p_rgh, Initial residual = 3.95766e-05, Final residual = 9.47695e-07, No Iterations 57
time step continuity errors : sum local = 4.7008e-08, global = 2.43122e-10, cumulative = 0.000148821
ExecutionTime = 339.76 s  ClockTime = 343 s

Time = 4988

DILUPBiCGStab:  Solving for Ux, Initial residual = 7.16122e-06, Final residual = 2.41984e-07, No Iterations 1
DILUPBiCGStab:  Solving for Uy, Initial residual = 1.88275e-05, Final residual = 7.48269e-07, No Iterations 1
DILUPBiCGStab:  Solving for Uz, Initial residual = 1.26788e-05, Final residual = 4.00676e-07, No Iterations 1
DICPCG:  Solving for G, Initial residual = 0.000120248, Final residual = 1.19483e-05, No Iterations 21
DILUPBiCGStab:  Solving for h, Initial residual = 0.000325644, Final residual = 1.51296e-07, No Iterations 1
DICPCG:  Solving for p_rgh, Initial residual = 3.95764e-05, Final residual = 9.46614e-07, No Iterations 57
time step continuity errors : sum local = 4.69541e-08, global = 2.42546e-10, cumulative = 0.000148822
ExecutionTime = 339.83 s  ClockTime = 343 s

Time = 4989

DILUPBiCGStab:  Solving for Ux, Initial residual = 7.16082e-06, Final residual = 2.41965e-07, No Iterations 1
DILUPBiCGStab:  Solving for Uy, Initial residual = 1.88264e-05, Final residual = 7.48163e-07, No Iterations 1
DILUPBiCGStab:  Solving for Uz, Initial residual = 1.2677e-05, Final residual = 4.00619e-07, No Iterations 1
DICPCG:  Solving for G, Initial residual = 0.000120234, Final residual = 1.18654e-05, No Iterations 21
DILUPBiCGStab:  Solving for h, Initial residual = 0.000325631, Final residual = 1.51289e-07, No Iterations 1
DICPCG:  Solving for p_rgh, Initial residual = 3.95653e-05, Final residual = 9.38008e-07, No Iterations 57
time step continuity errors : sum local = 4.6527e-08, global = 2.40401e-10, cumulative = 0.000148822
ExecutionTime = 339.89 s  ClockTime = 343 s

Time = 4990

DILUPBiCGStab:  Solving for Ux, Initial residual = 7.16024e-06, Final residual = 2.41962e-07, No Iterations 1
DILUPBiCGStab:  Solving for Uy, Initial residual = 1.88266e-05, Final residual = 7.48261e-07, No Iterations 1
DILUPBiCGStab:  Solving for Uz, Initial residual = 1.26753e-05, Final residual = 4.00567e-07, No Iterations 1
DICPCG:  Solving for G, Initial residual = 0.000120237, Final residual = 1.1969e-05, No Iterations 21
DILUPBiCGStab:  Solving for h, Initial residual = 0.000325617, Final residual = 1.51283e-07, No Iterations 1
DICPCG:  Solving for p_rgh, Initial residual = 3.95672e-05, Final residual = 9.48691e-07, No Iterations 57
time step continuity errors : sum local = 4.70567e-08, global = 2.43258e-10, cumulative = 0.000148822
ExecutionTime = 339.98 s  ClockTime = 343 s

Time = 4991

DILUPBiCGStab:  Solving for Ux, Initial residual = 7.16029e-06, Final residual = 2.41945e-07, No Iterations 1
DILUPBiCGStab:  Solving for Uy, Initial residual = 1.88241e-05, Final residual = 7.48082e-07, No Iterations 1
DILUPBiCGStab:  Solving for Uz, Initial residual = 1.26734e-05, Final residual = 4.00505e-07, No Iterations 1
DICPCG:  Solving for G, Initial residual = 0.000120222, Final residual = 1.18834e-05, No Iterations 21
DILUPBiCGStab:  Solving for h, Initial residual = 0.000325604, Final residual = 1.51276e-07, No Iterations 1
DICPCG:  Solving for p_rgh, Initial residual = 3.95669e-05, Final residual = 9.45101e-07, No Iterations 57
time step continuity errors : sum local = 4.68783e-08, global = 2.42635e-10, cumulative = 0.000148822
ExecutionTime = 340.04 s  ClockTime = 343 s

Time = 4992

DILUPBiCGStab:  Solving for Ux, Initial residual = 7.15988e-06, Final residual = 2.41924e-07, No Iterations 1
DILUPBiCGStab:  Solving for Uy, Initial residual = 1.8823e-05, Final residual = 7.4801e-07, No Iterations 1
DILUPBiCGStab:  Solving for Uz, Initial residual = 1.26716e-05, Final residual = 4.0045e-07, No Iterations 1
DICPCG:  Solving for G, Initial residual = 0.000120226, Final residual = 1.19845e-05, No Iterations 21
DILUPBiCGStab:  Solving for h, Initial residual = 0.000325591, Final residual = 1.5127e-07, No Iterations 1
DICPCG:  Solving for p_rgh, Initial residual = 3.95558e-05, Final residual = 9.39185e-07, No Iterations 57
time step continuity errors : sum local = 4.65846e-08, global = 2.4051e-10, cumulative = 0.000148823
ExecutionTime = 340.11 s  ClockTime = 343 s

Time = 4993

DILUPBiCGStab:  Solving for Ux, Initial residual = 7.1593e-06, Final residual = 2.41924e-07, No Iterations 1
DILUPBiCGStab:  Solving for Uy, Initial residual = 1.88232e-05, Final residual = 7.48077e-07, No Iterations 1
DILUPBiCGStab:  Solving for Uz, Initial residual = 1.26699e-05, Final residual = 4.00397e-07, No Iterations 1
DICPCG:  Solving for G, Initial residual = 0.000120211, Final residual = 1.19018e-05, No Iterations 21
DILUPBiCGStab:  Solving for h, Initial residual = 0.000325577, Final residual = 1.51263e-07, No Iterations 1
DICPCG:  Solving for p_rgh, Initial residual = 3.95575e-05, Final residual = 9.47374e-07, No Iterations 57
time step continuity errors : sum local = 4.69906e-08, global = 2.43318e-10, cumulative = 0.000148823
ExecutionTime = 340.18 s  ClockTime = 343 s

Time = 4994

DILUPBiCGStab:  Solving for Ux, Initial residual = 7.15935e-06, Final residual = 2.41905e-07, No Iterations 1
DILUPBiCGStab:  Solving for Uy, Initial residual = 1.88208e-05, Final residual = 7.4793e-07, No Iterations 1
DILUPBiCGStab:  Solving for Uz, Initial residual = 1.26679e-05, Final residual = 4.00336e-07, No Iterations 1
DICPCG:  Solving for G, Initial residual = 0.000120214, Final residual = 1.19959e-05, No Iterations 21
DILUPBiCGStab:  Solving for h, Initial residual = 0.000325564, Final residual = 1.51257e-07, No Iterations 1
DICPCG:  Solving for p_rgh, Initial residual = 3.95573e-05, Final residual = 9.46177e-07, No Iterations 57
time step continuity errors : sum local = 4.69309e-08, global = 2.42736e-10, cumulative = 0.000148823
ExecutionTime = 340.24 s  ClockTime = 343 s

Time = 4995

DILUPBiCGStab:  Solving for Ux, Initial residual = 7.15894e-06, Final residual = 2.41886e-07, No Iterations 1
DILUPBiCGStab:  Solving for Uy, Initial residual = 1.88197e-05, Final residual = 7.47828e-07, No Iterations 1
DILUPBiCGStab:  Solving for Uz, Initial residual = 1.26661e-05, Final residual = 4.0028e-07, No Iterations 1
DICPCG:  Solving for G, Initial residual = 0.0001202, Final residual = 1.19038e-05, No Iterations 21
DILUPBiCGStab:  Solving for h, Initial residual = 0.00032555, Final residual = 1.5125e-07, No Iterations 1
DICPCG:  Solving for p_rgh, Initial residual = 3.95463e-05, Final residual = 9.3774e-07, No Iterations 57
time step continuity errors : sum local = 4.65122e-08, global = 2.40604e-10, cumulative = 0.000148823
ExecutionTime = 340.31 s  ClockTime = 343 s

Time = 4996

DILUPBiCGStab:  Solving for Ux, Initial residual = 7.15837e-06, Final residual = 2.41884e-07, No Iterations 1
DILUPBiCGStab:  Solving for Uy, Initial residual = 1.88199e-05, Final residual = 7.47923e-07, No Iterations 1
DILUPBiCGStab:  Solving for Uz, Initial residual = 1.26644e-05, Final residual = 4.00228e-07, No Iterations 1
DICPCG:  Solving for G, Initial residual = 0.000120206, Final residual = 1.19816e-05, No Iterations 21
DILUPBiCGStab:  Solving for h, Initial residual = 0.000325537, Final residual = 1.51244e-07, No Iterations 1
DICPCG:  Solving for p_rgh, Initial residual = 3.95482e-05, Final residual = 9.48293e-07, No Iterations 57
time step continuity errors : sum local = 4.70354e-08, global = 2.43454e-10, cumulative = 0.000148824
ExecutionTime = 340.37 s  ClockTime = 343 s

Time = 4997

DILUPBiCGStab:  Solving for Ux, Initial residual = 7.15842e-06, Final residual = 2.41867e-07, No Iterations 1
DILUPBiCGStab:  Solving for Uy, Initial residual = 1.88175e-05, Final residual = 7.47747e-07, No Iterations 1
DILUPBiCGStab:  Solving for Uz, Initial residual = 1.26625e-05, Final residual = 4.00166e-07, No Iterations 1
DICPCG:  Solving for G, Initial residual = 0.00012019, Final residual = 1.19418e-05, No Iterations 21
DILUPBiCGStab:  Solving for h, Initial residual = 0.000325524, Final residual = 1.51237e-07, No Iterations 1
DICPCG:  Solving for p_rgh, Initial residual = 3.95479e-05, Final residual = 9.44882e-07, No Iterations 57
time step continuity errors : sum local = 4.68659e-08, global = 2.42843e-10, cumulative = 0.000148824
ExecutionTime = 340.44 s  ClockTime = 343 s

Time = 4998

DILUPBiCGStab:  Solving for Ux, Initial residual = 7.15801e-06, Final residual = 2.41846e-07, No Iterations 1
DILUPBiCGStab:  Solving for Uy, Initial residual = 1.88164e-05, Final residual = 7.47672e-07, No Iterations 1
DILUPBiCGStab:  Solving for Uz, Initial residual = 1.26607e-05, Final residual = 4.00111e-07, No Iterations 1
DICPCG:  Solving for G, Initial residual = 0.000120181, Final residual = 1.19957e-05, No Iterations 21
DILUPBiCGStab:  Solving for h, Initial residual = 0.00032551, Final residual = 1.5123e-07, No Iterations 1
DICPCG:  Solving for p_rgh, Initial residual = 3.95369e-05, Final residual = 9.38807e-07, No Iterations 57
time step continuity errors : sum local = 4.65644e-08, global = 2.40711e-10, cumulative = 0.000148824
ExecutionTime = 340.5 s  ClockTime = 343 s

Time = 4999

DILUPBiCGStab:  Solving for Ux, Initial residual = 7.15745e-06, Final residual = 2.41846e-07, No Iterations 1
DILUPBiCGStab:  Solving for Uy, Initial residual = 1.88166e-05, Final residual = 7.47742e-07, No Iterations 1
DILUPBiCGStab:  Solving for Uz, Initial residual = 1.2659e-05, Final residual = 4.00058e-07, No Iterations 1
DICPCG:  Solving for G, Initial residual = 0.000120183, Final residual = 1.19078e-05, No Iterations 21
DILUPBiCGStab:  Solving for h, Initial residual = 0.000325497, Final residual = 1.51224e-07, No Iterations 1
DICPCG:  Solving for p_rgh, Initial residual = 3.95386e-05, Final residual = 9.47105e-07, No Iterations 57
time step continuity errors : sum local = 4.69757e-08, global = 2.43519e-10, cumulative = 0.000148824
ExecutionTime = 340.57 s  ClockTime = 343 s

Time = 5000

DILUPBiCGStab:  Solving for Ux, Initial residual = 7.15749e-06, Final residual = 2.41827e-07, No Iterations 1
DILUPBiCGStab:  Solving for Uy, Initial residual = 1.88142e-05, Final residual = 7.47594e-07, No Iterations 1
DILUPBiCGStab:  Solving for Uz, Initial residual = 1.26571e-05, Final residual = 3.99998e-07, No Iterations 1
DICPCG:  Solving for G, Initial residual = 0.00012017, Final residual = 1.19179e-05, No Iterations 21
DILUPBiCGStab:  Solving for h, Initial residual = 0.000325484, Final residual = 1.51217e-07, No Iterations 1
DICPCG:  Solving for p_rgh, Initial residual = 3.95382e-05, Final residual = 9.45813e-07, No Iterations 57
time step continuity errors : sum local = 4.69114e-08, global = 2.42933e-10, cumulative = 0.000148825
ExecutionTime = 340.64 s  ClockTime = 344 s

End

Finalising parallel run
