/*---------------------------------------------------------------------------*\
  =========                 |
  \\      /  F ield         | OpenFOAM: The Open Source CFD Toolbox
   \\    /   O peration     | Website:  https://openfoam.org
    \\  /    A nd           | Version:  9
     \\/     M anipulation  |
\*---------------------------------------------------------------------------*/
Build  : 9-89839ae3b8cd
Exec   : buoyantSimpleFoam -parallel
Date   : Apr 05 2022
Time   : 18:00:45
Host   : "0b4a0c9cd4c1"
PID    : 8237
I/O    : uncollated
Case   : /home/openfoam/STL_ThermalZones/hotRadiationRoom
nProcs : 16
Slaves : 
15
(
"0b4a0c9cd4c1.8238"
"0b4a0c9cd4c1.8239"
"0b4a0c9cd4c1.8240"
"0b4a0c9cd4c1.8241"
"0b4a0c9cd4c1.8242"
"0b4a0c9cd4c1.8243"
"0b4a0c9cd4c1.8244"
"0b4a0c9cd4c1.8245"
"0b4a0c9cd4c1.8246"
"0b4a0c9cd4c1.8247"
"0b4a0c9cd4c1.8248"
"0b4a0c9cd4c1.8249"
"0b4a0c9cd4c1.8250"
"0b4a0c9cd4c1.8251"
"0b4a0c9cd4c1.8252"
)

Pstream initialised with:
    floatTransfer      : 0
    nProcsSimpleSum    : 0
    commsType          : nonBlocking
    polling iterations : 0
sigFpe : Enabling floating point exception trapping (FOAM_SIGFPE).
fileModificationChecking : Monitoring run-time modified files using timeStampMaster (fileModificationSkew 10)
allowSystemOperations : Allowing user-supplied system call operations

// * * * * * * * * * * * * * * * * * * * * * * * * * * * * * * * * * * * * * //
Create time

Create mesh for time = 0


SIMPLE: Convergence criteria found
        p_rgh: tolerance 0.01
        U: tolerance 0.001
        h: tolerance 0.001
        G: tolerance 0.001
        "(k|epsilon|omega)": tolerance 0.001

Reading thermophysical properties

Selecting thermodynamics package 
{
    type            heRhoThermo;
    mixture         pureMixture;
    transport       const;
    thermo          hConst;
    equationOfState perfectGas;
    specie          specie;
    energy          sensibleEnthalpy;
}

Reading field U

Reading/calculating face flux field phi

Creating turbulence model

Selecting turbulence model type RAS
Selecting RAS turbulence model kEpsilon
RAS
{
    model           kEpsilon;
    turbulence      on;
    printCoeffs     on;
    Cmu             0.09;
    C1              1.44;
    C2              1.92;
    C3              0;
    sigmak          1;
    sigmaEps        1.3;
}

Creating thermophysical transport model

Selecting thermophysical transport type RAS
Selecting default RAS thermophysical transport model unityLewisEddyDiffusivity

Reading g

Reading hRef
Calculating field g.h


Reading pRef
Reading field p_rgh

No MRF models present

Creating fvModels from "constant/fvModels"

Selecting finite volume model type radiation
    Name: radiation
Selecting radiationModel P1
Selecting absorptionEmissionModel constant
Selecting scatterModel none
Selecting soot model none
No fvConstraints present

Starting time loop

Time = 1

DILUPBiCGStab:  Solving for Ux, Initial residual = 1, Final residual = 0.0157598, No Iterations 1
DILUPBiCGStab:  Solving for Uy, Initial residual = 1, Final residual = 0.00851574, No Iterations 1
DILUPBiCGStab:  Solving for Uz, Initial residual = 1, Final residual = 0.0120389, No Iterations 1
DICPCG:  Solving for G, Initial residual = 1, Final residual = 0.0940968, No Iterations 19
DILUPBiCGStab:  Solving for h, Initial residual = 1, Final residual = 0.00408823, No Iterations 1
DICPCG:  Solving for p_rgh, Initial residual = 0.946532, Final residual = 0.00902736, No Iterations 25
time step continuity errors : sum local = 0.000628057, global = -2.11397e-19, cumulative = -2.11397e-19
DILUPBiCGStab:  Solving for epsilon, Initial residual = 0.0356276, Final residual = 0.00179695, No Iterations 1
DILUPBiCGStab:  Solving for k, Initial residual = 1, Final residual = 0.0583855, No Iterations 1
ExecutionTime = 0.11 s  ClockTime = 1 s

Time = 2

DILUPBiCGStab:  Solving for Ux, Initial residual = 0.549041, Final residual = 0.00585396, No Iterations 1
DILUPBiCGStab:  Solving for Uy, Initial residual = 0.542347, Final residual = 0.00594702, No Iterations 1
DILUPBiCGStab:  Solving for Uz, Initial residual = 0.979097, Final residual = 0.0115943, No Iterations 1
DICPCG:  Solving for G, Initial residual = 0.335655, Final residual = 0.0262386, No Iterations 14
DILUPBiCGStab:  Solving for h, Initial residual = 0.000867237, Final residual = 1.1656e-05, No Iterations 1
DICPCG:  Solving for p_rgh, Initial residual = 0.945142, Final residual = 0.00935627, No Iterations 30
time step continuity errors : sum local = 0.00210242, global = 4.90658e-18, cumulative = 4.69519e-18
DILUPBiCGStab:  Solving for epsilon, Initial residual = 0.00721135, Final residual = 0.000361044, No Iterations 1
DILUPBiCGStab:  Solving for k, Initial residual = 0.490136, Final residual = 0.0226897, No Iterations 1
ExecutionTime = 0.16 s  ClockTime = 1 s

Time = 3

DILUPBiCGStab:  Solving for Ux, Initial residual = 0.447843, Final residual = 0.00421964, No Iterations 1
DILUPBiCGStab:  Solving for Uy, Initial residual = 0.468228, Final residual = 0.00418162, No Iterations 1
DILUPBiCGStab:  Solving for Uz, Initial residual = 0.626316, Final residual = 0.00869976, No Iterations 1
DICPCG:  Solving for G, Initial residual = 0.032735, Final residual = 0.001973, No Iterations 16
DILUPBiCGStab:  Solving for h, Initial residual = 0.000818117, Final residual = 1.04588e-05, No Iterations 1
DICPCG:  Solving for p_rgh, Initial residual = 0.504818, Final residual = 0.00497644, No Iterations 70
time step continuity errors : sum local = 0.000316035, global = 3.05282e-17, cumulative = 3.52234e-17
DILUPBiCGStab:  Solving for epsilon, Initial residual = 0.0098729, Final residual = 0.000436233, No Iterations 1
DILUPBiCGStab:  Solving for k, Initial residual = 0.0845634, Final residual = 0.00431564, No Iterations 1
ExecutionTime = 0.23 s  ClockTime = 1 s

Time = 4

DILUPBiCGStab:  Solving for Ux, Initial residual = 0.104162, Final residual = 0.00116665, No Iterations 1
DILUPBiCGStab:  Solving for Uy, Initial residual = 0.0680963, Final residual = 0.00073914, No Iterations 1
DILUPBiCGStab:  Solving for Uz, Initial residual = 0.197463, Final residual = 0.00230372, No Iterations 1
DICPCG:  Solving for G, Initial residual = 0.00204163, Final residual = 0.000185958, No Iterations 13
DILUPBiCGStab:  Solving for h, Initial residual = 0.000770846, Final residual = 9.43806e-06, No Iterations 1
DICPCG:  Solving for p_rgh, Initial residual = 0.432441, Final residual = 0.00417791, No Iterations 52
time step continuity errors : sum local = 0.000275444, global = 7.51048e-18, cumulative = 4.27339e-17
DILUPBiCGStab:  Solving for epsilon, Initial residual = 0.0145615, Final residual = 0.000579893, No Iterations 1
DILUPBiCGStab:  Solving for k, Initial residual = 0.0435904, Final residual = 0.00211568, No Iterations 1
ExecutionTime = 0.28 s  ClockTime = 1 s

Time = 5

DILUPBiCGStab:  Solving for Ux, Initial residual = 0.188631, Final residual = 0.00176095, No Iterations 1
DILUPBiCGStab:  Solving for Uy, Initial residual = 0.185429, Final residual = 0.00165025, No Iterations 1
DILUPBiCGStab:  Solving for Uz, Initial residual = 0.264397, Final residual = 0.00365597, No Iterations 1
DICPCG:  Solving for G, Initial residual = 0.000308206, Final residual = 2.66397e-05, No Iterations 19
DILUPBiCGStab:  Solving for h, Initial residual = 0.000730216, Final residual = 8.72434e-06, No Iterations 1
DICPCG:  Solving for p_rgh, Initial residual = 0.567706, Final residual = 0.00566149, No Iterations 65
time step continuity errors : sum local = 0.000163612, global = 1.01452e-17, cumulative = 5.28791e-17
DILUPBiCGStab:  Solving for epsilon, Initial residual = 0.0161041, Final residual = 0.000663905, No Iterations 1
DILUPBiCGStab:  Solving for k, Initial residual = 0.0304185, Final residual = 0.00129294, No Iterations 1
ExecutionTime = 0.34 s  ClockTime = 1 s

Time = 6

DILUPBiCGStab:  Solving for Ux, Initial residual = 0.0527004, Final residual = 0.000580884, No Iterations 1
DILUPBiCGStab:  Solving for Uy, Initial residual = 0.0450536, Final residual = 0.000496587, No Iterations 1
DILUPBiCGStab:  Solving for Uz, Initial residual = 0.137592, Final residual = 0.00156153, No Iterations 1
DICPCG:  Solving for G, Initial residual = 0.00016043, Final residual = 1.44322e-05, No Iterations 20
DILUPBiCGStab:  Solving for h, Initial residual = 0.000699365, Final residual = 8.21502e-06, No Iterations 1
DICPCG:  Solving for p_rgh, Initial residual = 0.230762, Final residual = 0.0023076, No Iterations 57
time step continuity errors : sum local = 3.82682e-05, global = 1.14104e-17, cumulative = 6.42896e-17
DILUPBiCGStab:  Solving for epsilon, Initial residual = 0.0150623, Final residual = 0.000672784, No Iterations 1
DILUPBiCGStab:  Solving for k, Initial residual = 0.0247119, Final residual = 0.00095116, No Iterations 1
ExecutionTime = 0.39 s  ClockTime = 1 s

Time = 7

DILUPBiCGStab:  Solving for Ux, Initial residual = 0.0733197, Final residual = 0.000787409, No Iterations 1
DILUPBiCGStab:  Solving for Uy, Initial residual = 0.0568971, Final residual = 0.000554022, No Iterations 1
DILUPBiCGStab:  Solving for Uz, Initial residual = 0.128937, Final residual = 0.00171905, No Iterations 1
DICPCG:  Solving for G, Initial residual = 0.000148481, Final residual = 1.31583e-05, No Iterations 20
DILUPBiCGStab:  Solving for h, Initial residual = 0.000675464, Final residual = 7.81096e-06, No Iterations 1
DICPCG:  Solving for p_rgh, Initial residual = 0.186084, Final residual = 0.0018597, No Iterations 80
time step continuity errors : sum local = 2.64692e-05, global = 1.43884e-18, cumulative = 6.57284e-17
DILUPBiCGStab:  Solving for epsilon, Initial residual = 0.0135083, Final residual = 0.000645147, No Iterations 1
DILUPBiCGStab:  Solving for k, Initial residual = 0.0218896, Final residual = 0.000794789, No Iterations 1
ExecutionTime = 0.46 s  ClockTime = 1 s

Time = 8

DILUPBiCGStab:  Solving for Ux, Initial residual = 0.028715, Final residual = 0.000317538, No Iterations 1
DILUPBiCGStab:  Solving for Uy, Initial residual = 0.0239334, Final residual = 0.000235921, No Iterations 1
DILUPBiCGStab:  Solving for Uz, Initial residual = 0.0122292, Final residual = 0.000119079, No Iterations 1
DICPCG:  Solving for G, Initial residual = 0.000141799, Final residual = 1.23971e-05, No Iterations 20
DILUPBiCGStab:  Solving for h, Initial residual = 0.000654897, Final residual = 7.48568e-06, No Iterations 1
DICPCG:  Solving for p_rgh, Initial residual = 0.0893543, Final residual = 0.000775878, No Iterations 54
time step continuity errors : sum local = 9.42469e-06, global = 4.91149e-18, cumulative = 7.06399e-17
DILUPBiCGStab:  Solving for epsilon, Initial residual = 0.0123505, Final residual = 0.000575865, No Iterations 1
DILUPBiCGStab:  Solving for k, Initial residual = 0.0202788, Final residual = 0.000718642, No Iterations 1
ExecutionTime = 0.52 s  ClockTime = 1 s

Time = 9

DILUPBiCGStab:  Solving for Ux, Initial residual = 0.0255847, Final residual = 0.000280674, No Iterations 1
DILUPBiCGStab:  Solving for Uy, Initial residual = 0.0220099, Final residual = 0.00021408, No Iterations 1
DILUPBiCGStab:  Solving for Uz, Initial residual = 0.025779, Final residual = 0.000345505, No Iterations 1
DICPCG:  Solving for G, Initial residual = 0.000135344, Final residual = 1.17743e-05, No Iterations 20
DILUPBiCGStab:  Solving for h, Initial residual = 0.000636911, Final residual = 7.23356e-06, No Iterations 1
DICPCG:  Solving for p_rgh, Initial residual = 0.0682558, Final residual = 0.000649694, No Iterations 81
time step continuity errors : sum local = 7.40508e-06, global = 6.75349e-18, cumulative = 7.73934e-17
DILUPBiCGStab:  Solving for epsilon, Initial residual = 0.0111413, Final residual = 0.000491868, No Iterations 1
DILUPBiCGStab:  Solving for k, Initial residual = 0.0191971, Final residual = 0.000679003, No Iterations 1
ExecutionTime = 0.58 s  ClockTime = 1 s

Time = 10

DILUPBiCGStab:  Solving for Ux, Initial residual = 0.0214418, Final residual = 0.00024298, No Iterations 1
DILUPBiCGStab:  Solving for Uy, Initial residual = 0.0180517, Final residual = 0.000184832, No Iterations 1
DILUPBiCGStab:  Solving for Uz, Initial residual = 0.0160633, Final residual = 0.000157218, No Iterations 1
DICPCG:  Solving for G, Initial residual = 0.000130119, Final residual = 1.29019e-05, No Iterations 19
DILUPBiCGStab:  Solving for h, Initial residual = 0.000621002, Final residual = 7.02107e-06, No Iterations 1
DICPCG:  Solving for p_rgh, Initial residual = 0.0407621, Final residual = 0.000395739, No Iterations 51
time step continuity errors : sum local = 4.41163e-06, global = 4.93252e-17, cumulative = 1.26719e-16
DILUPBiCGStab:  Solving for epsilon, Initial residual = 0.00994137, Final residual = 0.000423503, No Iterations 1
DILUPBiCGStab:  Solving for k, Initial residual = 0.0183812, Final residual = 0.000657326, No Iterations 1
ExecutionTime = 0.64 s  ClockTime = 1 s

Time = 11

DILUPBiCGStab:  Solving for Ux, Initial residual = 0.022915, Final residual = 0.000259604, No Iterations 1
DILUPBiCGStab:  Solving for Uy, Initial residual = 0.0179878, Final residual = 0.000182314, No Iterations 1
DILUPBiCGStab:  Solving for Uz, Initial residual = 0.022838, Final residual = 0.000257925, No Iterations 1
DICPCG:  Solving for G, Initial residual = 0.000126024, Final residual = 1.24216e-05, No Iterations 19
DILUPBiCGStab:  Solving for h, Initial residual = 0.000608646, Final residual = 6.8352e-06, No Iterations 1
DICPCG:  Solving for p_rgh, Initial residual = 0.0307945, Final residual = 0.000299441, No Iterations 72
time step continuity errors : sum local = 3.27924e-06, global = 7.55789e-18, cumulative = 1.34276e-16
DILUPBiCGStab:  Solving for epsilon, Initial residual = 0.00890765, Final residual = 0.000373219, No Iterations 1
DILUPBiCGStab:  Solving for k, Initial residual = 0.0177218, Final residual = 0.000641814, No Iterations 1
ExecutionTime = 0.69 s  ClockTime = 1 s

Time = 12

DILUPBiCGStab:  Solving for Ux, Initial residual = 0.0202346, Final residual = 0.00023198, No Iterations 1
DILUPBiCGStab:  Solving for Uy, Initial residual = 0.0163207, Final residual = 0.000167246, No Iterations 1
DILUPBiCGStab:  Solving for Uz, Initial residual = 0.0131163, Final residual = 0.000130259, No Iterations 1
DICPCG:  Solving for G, Initial residual = 0.000122124, Final residual = 1.19944e-05, No Iterations 19
DILUPBiCGStab:  Solving for h, Initial residual = 0.000598517, Final residual = 6.66117e-06, No Iterations 1
DICPCG:  Solving for p_rgh, Initial residual = 0.0237783, Final residual = 0.000224724, No Iterations 53
time step continuity errors : sum local = 2.41432e-06, global = 2.42813e-17, cumulative = 1.58558e-16
DILUPBiCGStab:  Solving for epsilon, Initial residual = 0.0082256, Final residual = 0.000338394, No Iterations 1
DILUPBiCGStab:  Solving for k, Initial residual = 0.0171587, Final residual = 0.000629422, No Iterations 1
ExecutionTime = 0.75 s  ClockTime = 1 s

Time = 13

DILUPBiCGStab:  Solving for Ux, Initial residual = 0.0188641, Final residual = 0.000217039, No Iterations 1
DILUPBiCGStab:  Solving for Uy, Initial residual = 0.0155841, Final residual = 0.000159756, No Iterations 1
DILUPBiCGStab:  Solving for Uz, Initial residual = 0.0109106, Final residual = 0.000104434, No Iterations 1
DICPCG:  Solving for G, Initial residual = 0.000119157, Final residual = 1.16688e-05, No Iterations 19
DILUPBiCGStab:  Solving for h, Initial residual = 0.000589628, Final residual = 6.49215e-06, No Iterations 1
DICPCG:  Solving for p_rgh, Initial residual = 0.0205101, Final residual = 0.000186814, No Iterations 31
time step continuity errors : sum local = 1.97772e-06, global = -2.05755e-17, cumulative = 1.37982e-16
DILUPBiCGStab:  Solving for epsilon, Initial residual = 0.00781663, Final residual = 0.00031413, No Iterations 1
DILUPBiCGStab:  Solving for k, Initial residual = 0.0166604, Final residual = 0.000618258, No Iterations 1
ExecutionTime = 0.8 s  ClockTime = 1 s

Time = 14

DILUPBiCGStab:  Solving for Ux, Initial residual = 0.0184166, Final residual = 0.000211903, No Iterations 1
DILUPBiCGStab:  Solving for Uy, Initial residual = 0.0152117, Final residual = 0.000156278, No Iterations 1
DILUPBiCGStab:  Solving for Uz, Initial residual = 0.0118712, Final residual = 0.000114666, No Iterations 1
DICPCG:  Solving for G, Initial residual = 0.000116471, Final residual = 1.13769e-05, No Iterations 19
DILUPBiCGStab:  Solving for h, Initial residual = 0.000581758, Final residual = 6.3299e-06, No Iterations 1
DICPCG:  Solving for p_rgh, Initial residual = 0.018735, Final residual = 0.000177679, No Iterations 44
time step continuity errors : sum local = 1.86146e-06, global = 3.45283e-17, cumulative = 1.7251e-16
DILUPBiCGStab:  Solving for epsilon, Initial residual = 0.0075632, Final residual = 0.000298823, No Iterations 1
DILUPBiCGStab:  Solving for k, Initial residual = 0.0162127, Final residual = 0.000608019, No Iterations 1
ExecutionTime = 0.86 s  ClockTime = 1 s

Time = 15

DILUPBiCGStab:  Solving for Ux, Initial residual = 0.0179763, Final residual = 0.000207373, No Iterations 1
DILUPBiCGStab:  Solving for Uy, Initial residual = 0.0148306, Final residual = 0.000152996, No Iterations 1
DILUPBiCGStab:  Solving for Uz, Initial residual = 0.0121453, Final residual = 0.000118921, No Iterations 1
DICPCG:  Solving for G, Initial residual = 0.000114211, Final residual = 1.11363e-05, No Iterations 19
DILUPBiCGStab:  Solving for h, Initial residual = 0.000575125, Final residual = 6.1744e-06, No Iterations 1
DICPCG:  Solving for p_rgh, Initial residual = 0.0178432, Final residual = 0.000176115, No Iterations 31
time step continuity errors : sum local = 1.82951e-06, global = -2.26733e-17, cumulative = 1.49837e-16
DILUPBiCGStab:  Solving for epsilon, Initial residual = 0.00736679, Final residual = 0.000290421, No Iterations 1
DILUPBiCGStab:  Solving for k, Initial residual = 0.015809, Final residual = 0.000598648, No Iterations 1
ExecutionTime = 0.92 s  ClockTime = 1 s

Time = 16

DILUPBiCGStab:  Solving for Ux, Initial residual = 0.0173782, Final residual = 0.000201226, No Iterations 1
DILUPBiCGStab:  Solving for Uy, Initial residual = 0.0144473, Final residual = 0.000149704, No Iterations 1
DILUPBiCGStab:  Solving for Uz, Initial residual = 0.0113413, Final residual = 0.000110282, No Iterations 1
DICPCG:  Solving for G, Initial residual = 0.00011231, Final residual = 1.0881e-05, No Iterations 19
DILUPBiCGStab:  Solving for h, Initial residual = 0.000569504, Final residual = 6.02735e-06, No Iterations 1
DICPCG:  Solving for p_rgh, Initial residual = 0.0168068, Final residual = 0.000159523, No Iterations 35
time step continuity errors : sum local = 1.64514e-06, global = 6.61842e-18, cumulative = 1.56456e-16
DILUPBiCGStab:  Solving for epsilon, Initial residual = 0.00727896, Final residual = 0.000285909, No Iterations 1
DILUPBiCGStab:  Solving for k, Initial residual = 0.0154428, Final residual = 0.000590029, No Iterations 1
ExecutionTime = 0.97 s  ClockTime = 1 s

Time = 17

DILUPBiCGStab:  Solving for Ux, Initial residual = 0.0167847, Final residual = 0.000194996, No Iterations 1
DILUPBiCGStab:  Solving for Uy, Initial residual = 0.0140716, Final residual = 0.000146606, No Iterations 1
DILUPBiCGStab:  Solving for Uz, Initial residual = 0.0108077, Final residual = 0.000104808, No Iterations 1
DICPCG:  Solving for G, Initial residual = 0.000110463, Final residual = 1.07143e-05, No Iterations 19
DILUPBiCGStab:  Solving for h, Initial residual = 0.000564671, Final residual = 5.89057e-06, No Iterations 1
DICPCG:  Solving for p_rgh, Initial residual = 0.0159119, Final residual = 0.000155127, No Iterations 50
time step continuity errors : sum local = 1.59047e-06, global = -2.0846e-17, cumulative = 1.3561e-16
DILUPBiCGStab:  Solving for epsilon, Initial residual = 0.00727182, Final residual = 0.000285354, No Iterations 1
DILUPBiCGStab:  Solving for k, Initial residual = 0.0151083, Final residual = 0.000582041, No Iterations 1
ExecutionTime = 1.03 s  ClockTime = 1 s

Time = 18

DILUPBiCGStab:  Solving for Ux, Initial residual = 0.0163106, Final residual = 0.000190275, No Iterations 1
DILUPBiCGStab:  Solving for Uy, Initial residual = 0.0137243, Final residual = 0.000144047, No Iterations 1
DILUPBiCGStab:  Solving for Uz, Initial residual = 0.0105863, Final residual = 0.000102774, No Iterations 1
DICPCG:  Solving for G, Initial residual = 0.000109061, Final residual = 1.04935e-05, No Iterations 19
DILUPBiCGStab:  Solving for h, Initial residual = 0.000560785, Final residual = 5.76198e-06, No Iterations 1
DICPCG:  Solving for p_rgh, Initial residual = 0.015276, Final residual = 0.000152057, No Iterations 50
time step continuity errors : sum local = 1.55184e-06, global = -3.04836e-18, cumulative = 1.32561e-16
DILUPBiCGStab:  Solving for epsilon, Initial residual = 0.00737333, Final residual = 0.000287511, No Iterations 1
DILUPBiCGStab:  Solving for k, Initial residual = 0.0148012, Final residual = 0.000574612, No Iterations 1
ExecutionTime = 1.09 s  ClockTime = 2 s

Time = 19

DILUPBiCGStab:  Solving for Ux, Initial residual = 0.0158639, Final residual = 0.000185718, No Iterations 1
DILUPBiCGStab:  Solving for Uy, Initial residual = 0.013407, Final residual = 0.000141775, No Iterations 1
DILUPBiCGStab:  Solving for Uz, Initial residual = 0.010347, Final residual = 0.000100652, No Iterations 1
DICPCG:  Solving for G, Initial residual = 0.000107599, Final residual = 1.03564e-05, No Iterations 19
DILUPBiCGStab:  Solving for h, Initial residual = 0.000557455, Final residual = 5.64593e-06, No Iterations 1
DICPCG:  Solving for p_rgh, Initial residual = 0.0147264, Final residual = 0.000139599, No Iterations 29
time step continuity errors : sum local = 1.41963e-06, global = -1.25171e-17, cumulative = 1.20044e-16
DILUPBiCGStab:  Solving for epsilon, Initial residual = 0.00754027, Final residual = 0.000290112, No Iterations 1
DILUPBiCGStab:  Solving for k, Initial residual = 0.0145183, Final residual = 0.000567695, No Iterations 1
ExecutionTime = 1.14 s  ClockTime = 2 s

Time = 20

DILUPBiCGStab:  Solving for Ux, Initial residual = 0.0154561, Final residual = 0.000181568, No Iterations 1
DILUPBiCGStab:  Solving for Uy, Initial residual = 0.0131083, Final residual = 0.000139548, No Iterations 1
DILUPBiCGStab:  Solving for Uz, Initial residual = 0.0100786, Final residual = 9.82254e-05, No Iterations 1
DICPCG:  Solving for G, Initial residual = 0.000106496, Final residual = 1.01936e-05, No Iterations 19
DILUPBiCGStab:  Solving for h, Initial residual = 0.000554476, Final residual = 5.54122e-06, No Iterations 1
DICPCG:  Solving for p_rgh, Initial residual = 0.0142099, Final residual = 0.000136014, No Iterations 43
time step continuity errors : sum local = 1.37954e-06, global = -6.77607e-18, cumulative = 1.13268e-16
DILUPBiCGStab:  Solving for epsilon, Initial residual = 0.00774069, Final residual = 0.000292649, No Iterations 1
DILUPBiCGStab:  Solving for k, Initial residual = 0.0142567, Final residual = 0.000561252, No Iterations 1
ExecutionTime = 1.2 s  ClockTime = 2 s

Time = 21

DILUPBiCGStab:  Solving for Ux, Initial residual = 0.0150166, Final residual = 0.00017687, No Iterations 1
DILUPBiCGStab:  Solving for Uy, Initial residual = 0.0128059, Final residual = 0.000137124, No Iterations 1
DILUPBiCGStab:  Solving for Uz, Initial residual = 0.00983272, Final residual = 9.59198e-05, No Iterations 1
DICPCG:  Solving for G, Initial residual = 0.00010536, Final residual = 1.00458e-05, No Iterations 19
DILUPBiCGStab:  Solving for h, Initial residual = 0.000552164, Final residual = 5.44625e-06, No Iterations 1
DICPCG:  Solving for p_rgh, Initial residual = 0.0137039, Final residual = 0.00013466, No Iterations 46
time step continuity errors : sum local = 1.3633e-06, global = 2.46153e-17, cumulative = 1.37883e-16
DILUPBiCGStab:  Solving for epsilon, Initial residual = 0.00796767, Final residual = 0.000296704, No Iterations 1
DILUPBiCGStab:  Solving for k, Initial residual = 0.0140135, Final residual = 0.000555228, No Iterations 1
ExecutionTime = 1.26 s  ClockTime = 2 s

Time = 22

DILUPBiCGStab:  Solving for Ux, Initial residual = 0.0146552, Final residual = 0.000173218, No Iterations 1
DILUPBiCGStab:  Solving for Uy, Initial residual = 0.0125327, Final residual = 0.00013494, No Iterations 1
DILUPBiCGStab:  Solving for Uz, Initial residual = 0.00962669, Final residual = 9.3933e-05, No Iterations 1
DICPCG:  Solving for G, Initial residual = 0.000104477, Final residual = 9.95571e-06, No Iterations 19
DILUPBiCGStab:  Solving for h, Initial residual = 0.000550463, Final residual = 5.35984e-06, No Iterations 1
DICPCG:  Solving for p_rgh, Initial residual = 0.0132125, Final residual = 0.000128069, No Iterations 49
time step continuity errors : sum local = 1.29492e-06, global = -2.40866e-18, cumulative = 1.35475e-16
DILUPBiCGStab:  Solving for epsilon, Initial residual = 0.00821982, Final residual = 0.000302168, No Iterations 1
DILUPBiCGStab:  Solving for k, Initial residual = 0.0137865, Final residual = 0.000549583, No Iterations 1
ExecutionTime = 1.33 s  ClockTime = 2 s

Time = 23

DILUPBiCGStab:  Solving for Ux, Initial residual = 0.0143123, Final residual = 0.000169641, No Iterations 1
DILUPBiCGStab:  Solving for Uy, Initial residual = 0.0122796, Final residual = 0.000132864, No Iterations 1
DILUPBiCGStab:  Solving for Uz, Initial residual = 0.00944628, Final residual = 9.22585e-05, No Iterations 1
DICPCG:  Solving for G, Initial residual = 0.000103582, Final residual = 9.79509e-06, No Iterations 19
DILUPBiCGStab:  Solving for h, Initial residual = 0.000548961, Final residual = 5.28169e-06, No Iterations 1
DICPCG:  Solving for p_rgh, Initial residual = 0.0127944, Final residual = 0.000127473, No Iterations 34
time step continuity errors : sum local = 1.2879e-06, global = 3.55745e-18, cumulative = 1.39032e-16
DILUPBiCGStab:  Solving for epsilon, Initial residual = 0.00848282, Final residual = 0.000308409, No Iterations 1
DILUPBiCGStab:  Solving for k, Initial residual = 0.0135737, Final residual = 0.00054428, No Iterations 1
ExecutionTime = 1.38 s  ClockTime = 2 s

Time = 24

DILUPBiCGStab:  Solving for Ux, Initial residual = 0.0139799, Final residual = 0.00016604, No Iterations 1
DILUPBiCGStab:  Solving for Uy, Initial residual = 0.0120396, Final residual = 0.000130835, No Iterations 1
DILUPBiCGStab:  Solving for Uz, Initial residual = 0.00927861, Final residual = 9.07717e-05, No Iterations 1
DICPCG:  Solving for G, Initial residual = 0.000102712, Final residual = 9.76739e-06, No Iterations 19
DILUPBiCGStab:  Solving for h, Initial residual = 0.000547608, Final residual = 5.21024e-06, No Iterations 1
DICPCG:  Solving for p_rgh, Initial residual = 0.0123884, Final residual = 0.000116705, No Iterations 48
time step continuity errors : sum local = 1.17876e-06, global = 9.10443e-18, cumulative = 1.48137e-16
DILUPBiCGStab:  Solving for epsilon, Initial residual = 0.00875138, Final residual = 0.000314943, No Iterations 1
DILUPBiCGStab:  Solving for k, Initial residual = 0.0133739, Final residual = 0.000539301, No Iterations 1
ExecutionTime = 1.44 s  ClockTime = 2 s

Time = 25

DILUPBiCGStab:  Solving for Ux, Initial residual = 0.0136527, Final residual = 0.00016262, No Iterations 1
DILUPBiCGStab:  Solving for Uy, Initial residual = 0.0118029, Final residual = 0.000128852, No Iterations 1
DILUPBiCGStab:  Solving for Uz, Initial residual = 0.00911111, Final residual = 8.91549e-05, No Iterations 1
DICPCG:  Solving for G, Initial residual = 0.000101977, Final residual = 9.6036e-06, No Iterations 19
DILUPBiCGStab:  Solving for h, Initial residual = 0.000546423, Final residual = 5.14768e-06, No Iterations 1
DICPCG:  Solving for p_rgh, Initial residual = 0.012024, Final residual = 0.000119181, No Iterations 48
time step continuity errors : sum local = 1.20394e-06, global = -5.9152e-18, cumulative = 1.42221e-16
DILUPBiCGStab:  Solving for epsilon, Initial residual = 0.00902087, Final residual = 0.000322428, No Iterations 1
DILUPBiCGStab:  Solving for k, Initial residual = 0.0131862, Final residual = 0.000534634, No Iterations 1
ExecutionTime = 1.49 s  ClockTime = 2 s

Time = 26

DILUPBiCGStab:  Solving for Ux, Initial residual = 0.0133491, Final residual = 0.000159389, No Iterations 1
DILUPBiCGStab:  Solving for Uy, Initial residual = 0.011581, Final residual = 0.000126948, No Iterations 1
DILUPBiCGStab:  Solving for Uz, Initial residual = 0.00896049, Final residual = 8.78888e-05, No Iterations 1
DICPCG:  Solving for G, Initial residual = 0.000101168, Final residual = 9.61123e-06, No Iterations 19
DILUPBiCGStab:  Solving for h, Initial residual = 0.000545353, Final residual = 5.09203e-06, No Iterations 1
DICPCG:  Solving for p_rgh, Initial residual = 0.0116953, Final residual = 0.000115932, No Iterations 42
time step continuity errors : sum local = 1.17183e-06, global = -7.9785e-18, cumulative = 1.34243e-16
DILUPBiCGStab:  Solving for epsilon, Initial residual = 0.00929017, Final residual = 0.000330839, No Iterations 1
DILUPBiCGStab:  Solving for k, Initial residual = 0.0130095, Final residual = 0.000530259, No Iterations 1
ExecutionTime = 1.55 s  ClockTime = 2 s

Time = 27

DILUPBiCGStab:  Solving for Ux, Initial residual = 0.0130677, Final residual = 0.000156311, No Iterations 1
DILUPBiCGStab:  Solving for Uy, Initial residual = 0.0113756, Final residual = 0.000125169, No Iterations 1
DILUPBiCGStab:  Solving for Uz, Initial residual = 0.00882497, Final residual = 8.68294e-05, No Iterations 1
DICPCG:  Solving for G, Initial residual = 0.000100575, Final residual = 9.46889e-06, No Iterations 19
DILUPBiCGStab:  Solving for h, Initial residual = 0.000544459, Final residual = 5.04236e-06, No Iterations 1
DICPCG:  Solving for p_rgh, Initial residual = 0.0113966, Final residual = 0.000107789, No Iterations 47
time step continuity errors : sum local = 1.09079e-06, global = -2.49385e-17, cumulative = 1.09304e-16
DILUPBiCGStab:  Solving for epsilon, Initial residual = 0.00955842, Final residual = 0.000339836, No Iterations 1
DILUPBiCGStab:  Solving for k, Initial residual = 0.0128428, Final residual = 0.000526148, No Iterations 1
ExecutionTime = 1.61 s  ClockTime = 2 s

Time = 28

DILUPBiCGStab:  Solving for Ux, Initial residual = 0.0128015, Final residual = 0.000153563, No Iterations 1
DILUPBiCGStab:  Solving for Uy, Initial residual = 0.0111785, Final residual = 0.000123501, No Iterations 1
DILUPBiCGStab:  Solving for Uz, Initial residual = 0.00868753, Final residual = 8.5594e-05, No Iterations 1
DICPCG:  Solving for G, Initial residual = 9.9908e-05, Final residual = 9.45677e-06, No Iterations 19
DILUPBiCGStab:  Solving for h, Initial residual = 0.000543608, Final residual = 4.99958e-06, No Iterations 1
DICPCG:  Solving for p_rgh, Initial residual = 0.0111153, Final residual = 0.000104569, No Iterations 48
time step continuity errors : sum local = 1.05998e-06, global = -1.05684e-17, cumulative = 9.87359e-17
DILUPBiCGStab:  Solving for epsilon, Initial residual = 0.00982535, Final residual = 0.000350707, No Iterations 1
DILUPBiCGStab:  Solving for k, Initial residual = 0.0126852, Final residual = 0.000522282, No Iterations 1
ExecutionTime = 1.67 s  ClockTime = 2 s

Time = 29

DILUPBiCGStab:  Solving for Ux, Initial residual = 0.0125397, Final residual = 0.000150701, No Iterations 1
DILUPBiCGStab:  Solving for Uy, Initial residual = 0.0109898, Final residual = 0.000121829, No Iterations 1
DILUPBiCGStab:  Solving for Uz, Initial residual = 0.00855915, Final residual = 8.45351e-05, No Iterations 1
DICPCG:  Solving for G, Initial residual = 9.94205e-05, Final residual = 9.38312e-06, No Iterations 19
DILUPBiCGStab:  Solving for h, Initial residual = 0.000542771, Final residual = 4.96196e-06, No Iterations 1
DICPCG:  Solving for p_rgh, Initial residual = 0.0108911, Final residual = 0.000106248, No Iterations 47
time step continuity errors : sum local = 1.0793e-06, global = 2.56351e-17, cumulative = 1.24371e-16
DILUPBiCGStab:  Solving for epsilon, Initial residual = 0.010091, Final residual = 0.000362819, No Iterations 1
DILUPBiCGStab:  Solving for k, Initial residual = 0.0125358, Final residual = 0.000518641, No Iterations 1
ExecutionTime = 1.73 s  ClockTime = 2 s

Time = 30

DILUPBiCGStab:  Solving for Ux, Initial residual = 0.0122912, Final residual = 0.000147935, No Iterations 1
DILUPBiCGStab:  Solving for Uy, Initial residual = 0.0108126, Final residual = 0.000120233, No Iterations 1
DILUPBiCGStab:  Solving for Uz, Initial residual = 0.00843835, Final residual = 8.35564e-05, No Iterations 1
DICPCG:  Solving for G, Initial residual = 9.8984e-05, Final residual = 9.33243e-06, No Iterations 19
DILUPBiCGStab:  Solving for h, Initial residual = 0.000542014, Final residual = 4.92827e-06, No Iterations 1
DICPCG:  Solving for p_rgh, Initial residual = 0.0106709, Final residual = 0.000106613, No Iterations 46
time step continuity errors : sum local = 1.08573e-06, global = 3.54656e-17, cumulative = 1.59837e-16
DILUPBiCGStab:  Solving for epsilon, Initial residual = 0.010355, Final residual = 0.000375339, No Iterations 1
DILUPBiCGStab:  Solving for k, Initial residual = 0.012394, Final residual = 0.000515208, No Iterations 1
ExecutionTime = 1.78 s  ClockTime = 2 s

Time = 31

DILUPBiCGStab:  Solving for Ux, Initial residual = 0.012059, Final residual = 0.000145356, No Iterations 1
DILUPBiCGStab:  Solving for Uy, Initial residual = 0.0106466, Final residual = 0.000118734, No Iterations 1
DILUPBiCGStab:  Solving for Uz, Initial residual = 0.00832163, Final residual = 8.25803e-05, No Iterations 1
DICPCG:  Solving for G, Initial residual = 9.85414e-05, Final residual = 9.28496e-06, No Iterations 19
DILUPBiCGStab:  Solving for h, Initial residual = 0.000541506, Final residual = 4.8983e-06, No Iterations 1
DICPCG:  Solving for p_rgh, Initial residual = 0.0104625, Final residual = 0.000104052, No Iterations 47
time step continuity errors : sum local = 1.06266e-06, global = 5.0539e-17, cumulative = 2.10376e-16
DILUPBiCGStab:  Solving for epsilon, Initial residual = 0.010617, Final residual = 0.000388345, No Iterations 1
DILUPBiCGStab:  Solving for k, Initial residual = 0.0122591, Final residual = 0.00051196, No Iterations 1
ExecutionTime = 1.84 s  ClockTime = 2 s

Time = 32

DILUPBiCGStab:  Solving for Ux, Initial residual = 0.0118386, Final residual = 0.000142923, No Iterations 1
DILUPBiCGStab:  Solving for Uy, Initial residual = 0.0104894, Final residual = 0.000117303, No Iterations 1
DILUPBiCGStab:  Solving for Uz, Initial residual = 0.008208, Final residual = 8.16152e-05, No Iterations 1
DICPCG:  Solving for G, Initial residual = 9.82495e-05, Final residual = 9.2505e-06, No Iterations 19
DILUPBiCGStab:  Solving for h, Initial residual = 0.00054133, Final residual = 4.87283e-06, No Iterations 1
DICPCG:  Solving for p_rgh, Initial residual = 0.0102601, Final residual = 9.76528e-05, No Iterations 48
time step continuity errors : sum local = 1.00049e-06, global = 3.45795e-18, cumulative = 2.13833e-16
DILUPBiCGStab:  Solving for epsilon, Initial residual = 0.010877, Final residual = 0.000401767, No Iterations 1
DILUPBiCGStab:  Solving for k, Initial residual = 0.0121303, Final residual = 0.000508876, No Iterations 1
ExecutionTime = 1.9 s  ClockTime = 2 s

Time = 33

DILUPBiCGStab:  Solving for Ux, Initial residual = 0.0116276, Final residual = 0.000140546, No Iterations 1
DILUPBiCGStab:  Solving for Uy, Initial residual = 0.0103411, Final residual = 0.000115906, No Iterations 1
DILUPBiCGStab:  Solving for Uz, Initial residual = 0.00809959, Final residual = 8.07226e-05, No Iterations 1
DICPCG:  Solving for G, Initial residual = 9.79432e-05, Final residual = 9.20465e-06, No Iterations 19
DILUPBiCGStab:  Solving for h, Initial residual = 0.000541323, Final residual = 4.85167e-06, No Iterations 1
DICPCG:  Solving for p_rgh, Initial residual = 0.0100631, Final residual = 9.87691e-05, No Iterations 47
time step continuity errors : sum local = 1.01556e-06, global = -2.9352e-19, cumulative = 2.1354e-16
DILUPBiCGStab:  Solving for epsilon, Initial residual = 0.0111348, Final residual = 0.000415452, No Iterations 1
DILUPBiCGStab:  Solving for k, Initial residual = 0.0120072, Final residual = 0.000505951, No Iterations 1
ExecutionTime = 1.96 s  ClockTime = 2 s

Time = 34

DILUPBiCGStab:  Solving for Ux, Initial residual = 0.0114258, Final residual = 0.000138237, No Iterations 1
DILUPBiCGStab:  Solving for Uy, Initial residual = 0.0101997, Final residual = 0.000114554, No Iterations 1
DILUPBiCGStab:  Solving for Uz, Initial residual = 0.00799599, Final residual = 7.98775e-05, No Iterations 1
DICPCG:  Solving for G, Initial residual = 9.77351e-05, Final residual = 9.18667e-06, No Iterations 19
DILUPBiCGStab:  Solving for h, Initial residual = 0.000541354, Final residual = 4.83358e-06, No Iterations 1
DICPCG:  Solving for p_rgh, Initial residual = 0.00986391, Final residual = 9.84066e-05, No Iterations 47
time step continuity errors : sum local = 1.01581e-06, global = 2.55792e-17, cumulative = 2.39119e-16
DILUPBiCGStab:  Solving for epsilon, Initial residual = 0.0113904, Final residual = 0.000429248, No Iterations 1
DILUPBiCGStab:  Solving for k, Initial residual = 0.0118895, Final residual = 0.000503168, No Iterations 1
ExecutionTime = 2.02 s  ClockTime = 2 s

Time = 35

DILUPBiCGStab:  Solving for Ux, Initial residual = 0.0112366, Final residual = 0.00013607, No Iterations 1
DILUPBiCGStab:  Solving for Uy, Initial residual = 0.0100652, Final residual = 0.000113273, No Iterations 1
DILUPBiCGStab:  Solving for Uz, Initial residual = 0.0078944, Final residual = 7.90402e-05, No Iterations 1
DICPCG:  Solving for G, Initial residual = 9.75136e-05, Final residual = 9.1488e-06, No Iterations 19
DILUPBiCGStab:  Solving for h, Initial residual = 0.00054138, Final residual = 4.81729e-06, No Iterations 1
DICPCG:  Solving for p_rgh, Initial residual = 0.00967704, Final residual = 9.48919e-05, No Iterations 48
time step continuity errors : sum local = 9.83734e-07, global = -9.90487e-18, cumulative = 2.29214e-16
DILUPBiCGStab:  Solving for epsilon, Initial residual = 0.0116437, Final residual = 0.000443009, No Iterations 1
DILUPBiCGStab:  Solving for k, Initial residual = 0.0117767, Final residual = 0.00050052, No Iterations 1
ExecutionTime = 2.07 s  ClockTime = 3 s

Time = 36

DILUPBiCGStab:  Solving for Ux, Initial residual = 0.0110555, Final residual = 0.000133991, No Iterations 1
DILUPBiCGStab:  Solving for Uy, Initial residual = 0.00993489, Final residual = 0.000112043, No Iterations 1
DILUPBiCGStab:  Solving for Uz, Initial residual = 0.00779555, Final residual = 7.82248e-05, No Iterations 1
DICPCG:  Solving for G, Initial residual = 9.73458e-05, Final residual = 9.14133e-06, No Iterations 19
DILUPBiCGStab:  Solving for h, Initial residual = 0.000541409, Final residual = 4.80308e-06, No Iterations 1
DICPCG:  Solving for p_rgh, Initial residual = 0.00954271, Final residual = 9.2912e-05, No Iterations 48
time step continuity errors : sum local = 9.67707e-07, global = -2.35588e-17, cumulative = 2.05655e-16
DILUPBiCGStab:  Solving for epsilon, Initial residual = 0.0118947, Final residual = 0.000456692, No Iterations 1
DILUPBiCGStab:  Solving for k, Initial residual = 0.0116688, Final residual = 0.000498008, No Iterations 1
ExecutionTime = 2.13 s  ClockTime = 3 s

Time = 37

DILUPBiCGStab:  Solving for Ux, Initial residual = 0.0108794, Final residual = 0.000131966, No Iterations 1
DILUPBiCGStab:  Solving for Uy, Initial residual = 0.00980784, Final residual = 0.000110843, No Iterations 1
DILUPBiCGStab:  Solving for Uz, Initial residual = 0.0077005, Final residual = 7.74453e-05, No Iterations 1
DICPCG:  Solving for G, Initial residual = 9.71703e-05, Final residual = 9.09621e-06, No Iterations 19
DILUPBiCGStab:  Solving for h, Initial residual = 0.00054144, Final residual = 4.79037e-06, No Iterations 1
DICPCG:  Solving for p_rgh, Initial residual = 0.00944515, Final residual = 9.04837e-05, No Iterations 48
time step continuity errors : sum local = 9.47088e-07, global = 3.81699e-17, cumulative = 2.43825e-16
DILUPBiCGStab:  Solving for epsilon, Initial residual = 0.0121436, Final residual = 0.000470286, No Iterations 1
DILUPBiCGStab:  Solving for k, Initial residual = 0.0115654, Final residual = 0.000495621, No Iterations 1
ExecutionTime = 2.18 s  ClockTime = 3 s

Time = 38

DILUPBiCGStab:  Solving for Ux, Initial residual = 0.0107103, Final residual = 0.000130025, No Iterations 1
DILUPBiCGStab:  Solving for Uy, Initial residual = 0.00968503, Final residual = 0.000109695, No Iterations 1
DILUPBiCGStab:  Solving for Uz, Initial residual = 0.00760785, Final residual = 7.66824e-05, No Iterations 1
DICPCG:  Solving for G, Initial residual = 9.70893e-05, Final residual = 9.10304e-06, No Iterations 19
DILUPBiCGStab:  Solving for h, Initial residual = 0.000541484, Final residual = 4.77934e-06, No Iterations 1
DICPCG:  Solving for p_rgh, Initial residual = 0.00934747, Final residual = 8.92391e-05, No Iterations 48
time step continuity errors : sum local = 9.38893e-07, global = -3.22872e-18, cumulative = 2.40597e-16
DILUPBiCGStab:  Solving for epsilon, Initial residual = 0.0123903, Final residual = 0.00048379, No Iterations 1
DILUPBiCGStab:  Solving for k, Initial residual = 0.0114664, Final residual = 0.000493358, No Iterations 1
ExecutionTime = 2.24 s  ClockTime = 3 s

Time = 39

DILUPBiCGStab:  Solving for Ux, Initial residual = 0.0105483, Final residual = 0.000128164, No Iterations 1
DILUPBiCGStab:  Solving for Uy, Initial residual = 0.00956651, Final residual = 0.000108588, No Iterations 1
DILUPBiCGStab:  Solving for Uz, Initial residual = 0.00751735, Final residual = 7.59325e-05, No Iterations 1
DICPCG:  Solving for G, Initial residual = 9.69821e-05, Final residual = 9.06805e-06, No Iterations 19
DILUPBiCGStab:  Solving for h, Initial residual = 0.000541587, Final residual = 4.76968e-06, No Iterations 1
DICPCG:  Solving for p_rgh, Initial residual = 0.00918165, Final residual = 8.92184e-05, No Iterations 48
time step continuity errors : sum local = 9.43787e-07, global = 6.35636e-18, cumulative = 2.46953e-16
DILUPBiCGStab:  Solving for epsilon, Initial residual = 0.012635, Final residual = 0.000497202, No Iterations 1
DILUPBiCGStab:  Solving for k, Initial residual = 0.0113716, Final residual = 0.000491217, No Iterations 1
ExecutionTime = 2.3 s  ClockTime = 3 s

Time = 40

DILUPBiCGStab:  Solving for Ux, Initial residual = 0.0103925, Final residual = 0.000126369, No Iterations 1
DILUPBiCGStab:  Solving for Uy, Initial residual = 0.00945106, Final residual = 0.00010752, No Iterations 1
DILUPBiCGStab:  Solving for Uz, Initial residual = 0.00742925, Final residual = 7.51999e-05, No Iterations 1
DICPCG:  Solving for G, Initial residual = 9.69085e-05, Final residual = 9.10643e-06, No Iterations 19
DILUPBiCGStab:  Solving for h, Initial residual = 0.000541731, Final residual = 4.76123e-06, No Iterations 1
DICPCG:  Solving for p_rgh, Initial residual = 0.00898185, Final residual = 8.94634e-05, No Iterations 48
time step continuity errors : sum local = 9.51683e-07, global = -4.72143e-18, cumulative = 2.42232e-16
DILUPBiCGStab:  Solving for epsilon, Initial residual = 0.0128774, Final residual = 0.000510513, No Iterations 1
DILUPBiCGStab:  Solving for k, Initial residual = 0.0112808, Final residual = 0.000489191, No Iterations 1
ExecutionTime = 2.35 s  ClockTime = 3 s

Time = 41

DILUPBiCGStab:  Solving for Ux, Initial residual = 0.0102414, Final residual = 0.000124638, No Iterations 1
DILUPBiCGStab:  Solving for Uy, Initial residual = 0.00933846, Final residual = 0.000106475, No Iterations 1
DILUPBiCGStab:  Solving for Uz, Initial residual = 0.00734331, Final residual = 7.44875e-05, No Iterations 1
DICPCG:  Solving for G, Initial residual = 9.67909e-05, Final residual = 9.07384e-06, No Iterations 19
DILUPBiCGStab:  Solving for h, Initial residual = 0.000541909, Final residual = 4.75452e-06, No Iterations 1
DICPCG:  Solving for p_rgh, Initial residual = 0.00879493, Final residual = 8.77034e-05, No Iterations 49
time step continuity errors : sum local = 9.38126e-07, global = 9.51488e-18, cumulative = 2.51746e-16
DILUPBiCGStab:  Solving for epsilon, Initial residual = 0.0131177, Final residual = 0.000523722, No Iterations 1
DILUPBiCGStab:  Solving for k, Initial residual = 0.0111938, Final residual = 0.000487273, No Iterations 1
ExecutionTime = 2.41 s  ClockTime = 3 s

Time = 42

DILUPBiCGStab:  Solving for Ux, Initial residual = 0.0100962, Final residual = 0.000122976, No Iterations 1
DILUPBiCGStab:  Solving for Uy, Initial residual = 0.00922997, Final residual = 0.000105473, No Iterations 1
DILUPBiCGStab:  Solving for Uz, Initial residual = 0.00725881, Final residual = 7.37882e-05, No Iterations 1
DICPCG:  Solving for G, Initial residual = 9.66931e-05, Final residual = 9.13363e-06, No Iterations 19
DILUPBiCGStab:  Solving for h, Initial residual = 0.00054214, Final residual = 4.74863e-06, No Iterations 1
DICPCG:  Solving for p_rgh, Initial residual = 0.00859931, Final residual = 8.42621e-05, No Iterations 51
time step continuity errors : sum local = 9.06232e-07, global = -3.65299e-17, cumulative = 2.15217e-16
DILUPBiCGStab:  Solving for epsilon, Initial residual = 0.0133557, Final residual = 0.00053683, No Iterations 1
DILUPBiCGStab:  Solving for k, Initial residual = 0.0111104, Final residual = 0.000485456, No Iterations 1
ExecutionTime = 2.46 s  ClockTime = 3 s

Time = 43

DILUPBiCGStab:  Solving for Ux, Initial residual = 0.00995672, Final residual = 0.000121366, No Iterations 1
DILUPBiCGStab:  Solving for Uy, Initial residual = 0.00912487, Final residual = 0.000104481, No Iterations 1
DILUPBiCGStab:  Solving for Uz, Initial residual = 0.0071763, Final residual = 7.31043e-05, No Iterations 1
DICPCG:  Solving for G, Initial residual = 9.65211e-05, Final residual = 9.11256e-06, No Iterations 19
DILUPBiCGStab:  Solving for h, Initial residual = 0.000542411, Final residual = 4.74292e-06, No Iterations 1
DICPCG:  Solving for p_rgh, Initial residual = 0.00847105, Final residual = 8.42544e-05, No Iterations 47
time step continuity errors : sum local = 9.11022e-07, global = 1.26394e-17, cumulative = 2.27856e-16
DILUPBiCGStab:  Solving for epsilon, Initial residual = 0.0135914, Final residual = 0.00054984, No Iterations 1
DILUPBiCGStab:  Solving for k, Initial residual = 0.0110303, Final residual = 0.000483737, No Iterations 1
ExecutionTime = 2.53 s  ClockTime = 3 s

Time = 44

DILUPBiCGStab:  Solving for Ux, Initial residual = 0.00981736, Final residual = 0.000119748, No Iterations 1
DILUPBiCGStab:  Solving for Uy, Initial residual = 0.00902044, Final residual = 0.000103475, No Iterations 1
DILUPBiCGStab:  Solving for Uz, Initial residual = 0.00709729, Final residual = 7.24431e-05, No Iterations 1
DICPCG:  Solving for G, Initial residual = 9.63568e-05, Final residual = 9.14022e-06, No Iterations 19
DILUPBiCGStab:  Solving for h, Initial residual = 0.000542792, Final residual = 4.73762e-06, No Iterations 1
DICPCG:  Solving for p_rgh, Initial residual = 0.00840507, Final residual = 8.40434e-05, No Iterations 52
time step continuity errors : sum local = 9.13821e-07, global = -1.28983e-17, cumulative = 2.14958e-16
DILUPBiCGStab:  Solving for epsilon, Initial residual = 0.0138248, Final residual = 0.000562754, No Iterations 1
DILUPBiCGStab:  Solving for k, Initial residual = 0.0109534, Final residual = 0.000482108, No Iterations 1
ExecutionTime = 2.57 s  ClockTime = 3 s

Time = 45

DILUPBiCGStab:  Solving for Ux, Initial residual = 0.00969057, Final residual = 0.000118264, No Iterations 1
DILUPBiCGStab:  Solving for Uy, Initial residual = 0.00892421, Final residual = 0.000102564, No Iterations 1
DILUPBiCGStab:  Solving for Uz, Initial residual = 0.00701563, Final residual = 7.17482e-05, No Iterations 1
DICPCG:  Solving for G, Initial residual = 9.61681e-05, Final residual = 9.10733e-06, No Iterations 19
DILUPBiCGStab:  Solving for h, Initial residual = 0.000543164, Final residual = 4.73294e-06, No Iterations 1
DICPCG:  Solving for p_rgh, Initial residual = 0.00832868, Final residual = 8.11843e-05, No Iterations 48
time step continuity errors : sum local = 8.87854e-07, global = -9.32788e-18, cumulative = 2.0563e-16
DILUPBiCGStab:  Solving for epsilon, Initial residual = 0.0140559, Final residual = 0.000575578, No Iterations 1
DILUPBiCGStab:  Solving for k, Initial residual = 0.0108794, Final residual = 0.00048056, No Iterations 1
ExecutionTime = 2.63 s  ClockTime = 3 s

Time = 46

DILUPBiCGStab:  Solving for Ux, Initial residual = 0.00955965, Final residual = 0.000116751, No Iterations 1
DILUPBiCGStab:  Solving for Uy, Initial residual = 0.00882586, Final residual = 0.000101597, No Iterations 1
DILUPBiCGStab:  Solving for Uz, Initial residual = 0.00693968, Final residual = 7.11017e-05, No Iterations 1
DICPCG:  Solving for G, Initial residual = 9.60507e-05, Final residual = 9.11936e-06, No Iterations 19
DILUPBiCGStab:  Solving for h, Initial residual = 0.000543524, Final residual = 4.72889e-06, No Iterations 1
DICPCG:  Solving for p_rgh, Initial residual = 0.00824252, Final residual = 8.09908e-05, No Iterations 53
time step continuity errors : sum local = 8.90868e-07, global = -2.67157e-17, cumulative = 1.78914e-16
DILUPBiCGStab:  Solving for epsilon, Initial residual = 0.0142848, Final residual = 0.000588314, No Iterations 1
DILUPBiCGStab:  Solving for k, Initial residual = 0.0108082, Final residual = 0.00047909, No Iterations 1
ExecutionTime = 2.68 s  ClockTime = 3 s

Time = 47

DILUPBiCGStab:  Solving for Ux, Initial residual = 0.00944016, Final residual = 0.000115347, No Iterations 1
DILUPBiCGStab:  Solving for Uy, Initial residual = 0.00873338, Final residual = 0.000100718, No Iterations 1
DILUPBiCGStab:  Solving for Uz, Initial residual = 0.00686221, Final residual = 7.04421e-05, No Iterations 1
DICPCG:  Solving for G, Initial residual = 9.59101e-05, Final residual = 9.10703e-06, No Iterations 19
DILUPBiCGStab:  Solving for h, Initial residual = 0.000543918, Final residual = 4.72543e-06, No Iterations 1
DICPCG:  Solving for p_rgh, Initial residual = 0.00814816, Final residual = 7.98744e-05, No Iterations 47
time step continuity errors : sum local = 8.83686e-07, global = 6.28889e-17, cumulative = 2.41803e-16
DILUPBiCGStab:  Solving for epsilon, Initial residual = 0.0145114, Final residual = 0.000600966, No Iterations 1
DILUPBiCGStab:  Solving for k, Initial residual = 0.0107397, Final residual = 0.000477695, No Iterations 1
ExecutionTime = 2.74 s  ClockTime = 3 s

Time = 48

DILUPBiCGStab:  Solving for Ux, Initial residual = 0.00931608, Final residual = 0.000113909, No Iterations 1
DILUPBiCGStab:  Solving for Uy, Initial residual = 0.00863949, Final residual = 9.97896e-05, No Iterations 1
DILUPBiCGStab:  Solving for Uz, Initial residual = 0.00678956, Final residual = 6.98168e-05, No Iterations 1
DICPCG:  Solving for G, Initial residual = 9.5904e-05, Final residual = 9.12152e-06, No Iterations 19
DILUPBiCGStab:  Solving for h, Initial residual = 0.000544323, Final residual = 4.72208e-06, No Iterations 1
DICPCG:  Solving for p_rgh, Initial residual = 0.00804139, Final residual = 7.90961e-05, No Iterations 54
time step continuity errors : sum local = 8.80163e-07, global = -1.09141e-17, cumulative = 2.30889e-16
DILUPBiCGStab:  Solving for epsilon, Initial residual = 0.0147358, Final residual = 0.000613529, No Iterations 1
DILUPBiCGStab:  Solving for k, Initial residual = 0.0106737, Final residual = 0.000476368, No Iterations 1
ExecutionTime = 2.79 s  ClockTime = 3 s

Time = 49

DILUPBiCGStab:  Solving for Ux, Initial residual = 0.00920509, Final residual = 0.000112597, No Iterations 1
DILUPBiCGStab:  Solving for Uy, Initial residual = 0.00855277, Final residual = 9.8969e-05, No Iterations 1
DILUPBiCGStab:  Solving for Uz, Initial residual = 0.00671361, Final residual = 6.91601e-05, No Iterations 1
DICPCG:  Solving for G, Initial residual = 9.58338e-05, Final residual = 9.12377e-06, No Iterations 19
DILUPBiCGStab:  Solving for h, Initial residual = 0.000544749, Final residual = 4.71843e-06, No Iterations 1
DICPCG:  Solving for p_rgh, Initial residual = 0.00792693, Final residual = 7.86341e-05, No Iterations 47
time step continuity errors : sum local = 8.80143e-07, global = 8.50091e-17, cumulative = 3.15898e-16
DILUPBiCGStab:  Solving for epsilon, Initial residual = 0.0149578, Final residual = 0.000626006, No Iterations 1
DILUPBiCGStab:  Solving for k, Initial residual = 0.01061, Final residual = 0.000475105, No Iterations 1
ExecutionTime = 2.84 s  ClockTime = 3 s

Time = 50

DILUPBiCGStab:  Solving for Ux, Initial residual = 0.00908683, Final residual = 0.000111224, No Iterations 1
DILUPBiCGStab:  Solving for Uy, Initial residual = 0.00846307, Final residual = 9.80631e-05, No Iterations 1
DILUPBiCGStab:  Solving for Uz, Initial residual = 0.00664398, Final residual = 6.85545e-05, No Iterations 1
DICPCG:  Solving for G, Initial residual = 9.58362e-05, Final residual = 9.13189e-06, No Iterations 19
DILUPBiCGStab:  Solving for h, Initial residual = 0.000545206, Final residual = 4.71457e-06, No Iterations 1
DICPCG:  Solving for p_rgh, Initial residual = 0.00783673, Final residual = 7.81048e-05, No Iterations 54
time step continuity errors : sum local = 8.79438e-07, global = 5.05537e-18, cumulative = 3.20953e-16
DILUPBiCGStab:  Solving for epsilon, Initial residual = 0.0151776, Final residual = 0.000638399, No Iterations 1
DILUPBiCGStab:  Solving for k, Initial residual = 0.0105485, Final residual = 0.000473903, No Iterations 1
ExecutionTime = 2.9 s  ClockTime = 3 s

Time = 51

DILUPBiCGStab:  Solving for Ux, Initial residual = 0.00898206, Final residual = 0.000109977, No Iterations 1
DILUPBiCGStab:  Solving for Uy, Initial residual = 0.00838097, Final residual = 9.72701e-05, No Iterations 1
DILUPBiCGStab:  Solving for Uz, Initial residual = 0.00657095, Final residual = 6.79181e-05, No Iterations 1
DICPCG:  Solving for G, Initial residual = 9.58301e-05, Final residual = 9.14877e-06, No Iterations 19
DILUPBiCGStab:  Solving for h, Initial residual = 0.000545713, Final residual = 4.71031e-06, No Iterations 1
DICPCG:  Solving for p_rgh, Initial residual = 0.00776633, Final residual = 7.73204e-05, No Iterations 47
time step continuity errors : sum local = 8.75962e-07, global = 2.05484e-17, cumulative = 3.41502e-16
DILUPBiCGStab:  Solving for epsilon, Initial residual = 0.015395, Final residual = 0.000650707, No Iterations 1
DILUPBiCGStab:  Solving for k, Initial residual = 0.0104891, Final residual = 0.000472756, No Iterations 1
ExecutionTime = 2.95 s  ClockTime = 3 s

Time = 52

DILUPBiCGStab:  Solving for Ux, Initial residual = 0.00887148, Final residual = 0.000108675, No Iterations 1
DILUPBiCGStab:  Solving for Uy, Initial residual = 0.0082961, Final residual = 9.64048e-05, No Iterations 1
DILUPBiCGStab:  Solving for Uz, Initial residual = 0.00650409, Final residual = 6.73273e-05, No Iterations 1
DICPCG:  Solving for G, Initial residual = 9.59253e-05, Final residual = 9.15595e-06, No Iterations 19
DILUPBiCGStab:  Solving for h, Initial residual = 0.00054627, Final residual = 4.70566e-06, No Iterations 1
DICPCG:  Solving for p_rgh, Initial residual = 0.00769931, Final residual = 7.62769e-05, No Iterations 55
time step continuity errors : sum local = 8.6945e-07, global = 5.2634e-17, cumulative = 3.94136e-16
DILUPBiCGStab:  Solving for epsilon, Initial residual = 0.0156101, Final residual = 0.000662931, No Iterations 1
DILUPBiCGStab:  Solving for k, Initial residual = 0.0104317, Final residual = 0.000471663, No Iterations 1
ExecutionTime = 3.02 s  ClockTime = 3 s

Time = 53

DILUPBiCGStab:  Solving for Ux, Initial residual = 0.00877301, Final residual = 0.000107491, No Iterations 1
DILUPBiCGStab:  Solving for Uy, Initial residual = 0.00821875, Final residual = 9.56439e-05, No Iterations 1
DILUPBiCGStab:  Solving for Uz, Initial residual = 0.00643405, Final residual = 6.67065e-05, No Iterations 1
DICPCG:  Solving for G, Initial residual = 9.59247e-05, Final residual = 9.17605e-06, No Iterations 19
DILUPBiCGStab:  Solving for h, Initial residual = 0.000546841, Final residual = 4.7009e-06, No Iterations 1
DICPCG:  Solving for p_rgh, Initial residual = 0.00760617, Final residual = 7.39882e-05, No Iterations 47
time step continuity errors : sum local = 8.48468e-07, global = 9.28942e-18, cumulative = 4.03425e-16
DILUPBiCGStab:  Solving for epsilon, Initial residual = 0.0158228, Final residual = 0.000675072, No Iterations 1
DILUPBiCGStab:  Solving for k, Initial residual = 0.0103761, Final residual = 0.000470619, No Iterations 1
ExecutionTime = 3.07 s  ClockTime = 4 s

Time = 54

DILUPBiCGStab:  Solving for Ux, Initial residual = 0.00866757, Final residual = 0.000106242, No Iterations 1
DILUPBiCGStab:  Solving for Uy, Initial residual = 0.00813815, Final residual = 9.47998e-05, No Iterations 1
DILUPBiCGStab:  Solving for Uz, Initial residual = 0.00637017, Final residual = 6.61269e-05, No Iterations 1
DICPCG:  Solving for G, Initial residual = 9.59657e-05, Final residual = 9.16831e-06, No Iterations 19
DILUPBiCGStab:  Solving for h, Initial residual = 0.000547443, Final residual = 4.69665e-06, No Iterations 1
DICPCG:  Solving for p_rgh, Initial residual = 0.00753357, Final residual = 7.35515e-05, No Iterations 57
time step continuity errors : sum local = 8.48809e-07, global = -2.36012e-17, cumulative = 3.79824e-16
DILUPBiCGStab:  Solving for epsilon, Initial residual = 0.0160331, Final residual = 0.000687124, No Iterations 1
DILUPBiCGStab:  Solving for k, Initial residual = 0.0103224, Final residual = 0.000469621, No Iterations 1
ExecutionTime = 3.13 s  ClockTime = 4 s

Time = 55

DILUPBiCGStab:  Solving for Ux, Initial residual = 0.00857507, Final residual = 0.000105128, No Iterations 1
DILUPBiCGStab:  Solving for Uy, Initial residual = 0.008065, Final residual = 9.40646e-05, No Iterations 1
DILUPBiCGStab:  Solving for Uz, Initial residual = 0.00630328, Final residual = 6.55244e-05, No Iterations 1
DICPCG:  Solving for G, Initial residual = 9.59103e-05, Final residual = 9.19005e-06, No Iterations 19
DILUPBiCGStab:  Solving for h, Initial residual = 0.0005481, Final residual = 4.69223e-06, No Iterations 1
DICPCG:  Solving for p_rgh, Initial residual = 0.00751033, Final residual = 6.98731e-05, No Iterations 47
time step continuity errors : sum local = 8.11539e-07, global = 1.25676e-17, cumulative = 3.92392e-16
DILUPBiCGStab:  Solving for epsilon, Initial residual = 0.0162411, Final residual = 0.000699093, No Iterations 1
DILUPBiCGStab:  Solving for k, Initial residual = 0.0102704, Final residual = 0.000468668, No Iterations 1
ExecutionTime = 3.18 s  ClockTime = 4 s

Time = 56

DILUPBiCGStab:  Solving for Ux, Initial residual = 0.00847532, Final residual = 0.000103927, No Iterations 1
DILUPBiCGStab:  Solving for Uy, Initial residual = 0.00798908, Final residual = 9.32386e-05, No Iterations 1
DILUPBiCGStab:  Solving for Uz, Initial residual = 0.00624179, Final residual = 6.49497e-05, No Iterations 1
DICPCG:  Solving for G, Initial residual = 9.60517e-05, Final residual = 9.16701e-06, No Iterations 19
DILUPBiCGStab:  Solving for h, Initial residual = 0.000548791, Final residual = 4.68754e-06, No Iterations 1
DICPCG:  Solving for p_rgh, Initial residual = 0.00746722, Final residual = 7.36681e-05, No Iterations 57
time step continuity errors : sum local = 8.61293e-07, global = 3.27031e-17, cumulative = 4.25095e-16
DILUPBiCGStab:  Solving for epsilon, Initial residual = 0.0164466, Final residual = 0.000710976, No Iterations 1
DILUPBiCGStab:  Solving for k, Initial residual = 0.01022, Final residual = 0.000467758, No Iterations 1
ExecutionTime = 3.24 s  ClockTime = 4 s

Time = 57

DILUPBiCGStab:  Solving for Ux, Initial residual = 0.00838832, Final residual = 0.000102865, No Iterations 1
DILUPBiCGStab:  Solving for Uy, Initial residual = 0.00791963, Final residual = 9.2526e-05, No Iterations 1
DILUPBiCGStab:  Solving for Uz, Initial residual = 0.0061775, Final residual = 6.43634e-05, No Iterations 1
DICPCG:  Solving for G, Initial residual = 9.62976e-05, Final residual = 9.19685e-06, No Iterations 19
DILUPBiCGStab:  Solving for h, Initial residual = 0.000549501, Final residual = 4.68283e-06, No Iterations 1
DICPCG:  Solving for p_rgh, Initial residual = 0.00742992, Final residual = 7.09507e-05, No Iterations 47
time step continuity errors : sum local = 8.34967e-07, global = -8.58434e-17, cumulative = 3.39251e-16
DILUPBiCGStab:  Solving for epsilon, Initial residual = 0.0166495, Final residual = 0.000722767, No Iterations 1
DILUPBiCGStab:  Solving for k, Initial residual = 0.0101712, Final residual = 0.000466888, No Iterations 1
ExecutionTime = 3.29 s  ClockTime = 4 s

Time = 58

DILUPBiCGStab:  Solving for Ux, Initial residual = 0.0082949, Final residual = 0.000101732, No Iterations 1
DILUPBiCGStab:  Solving for Uy, Initial residual = 0.00784771, Final residual = 9.17339e-05, No Iterations 1
DILUPBiCGStab:  Solving for Uz, Initial residual = 0.0061184, Final residual = 6.38078e-05, No Iterations 1
DICPCG:  Solving for G, Initial residual = 9.65669e-05, Final residual = 9.1778e-06, No Iterations 19
DILUPBiCGStab:  Solving for h, Initial residual = 0.000550245, Final residual = 4.67807e-06, No Iterations 1
DICPCG:  Solving for p_rgh, Initial residual = 0.00738335, Final residual = 6.99998e-05, No Iterations 58
time step continuity errors : sum local = 8.29103e-07, global = -1.58415e-17, cumulative = 3.2341e-16
DILUPBiCGStab:  Solving for epsilon, Initial residual = 0.0168499, Final residual = 0.000734464, No Iterations 1
DILUPBiCGStab:  Solving for k, Initial residual = 0.010124, Final residual = 0.000466056, No Iterations 1
ExecutionTime = 3.35 s  ClockTime = 4 s

Time = 59

DILUPBiCGStab:  Solving for Ux, Initial residual = 0.00821275, Final residual = 0.000100722, No Iterations 1
DILUPBiCGStab:  Solving for Uy, Initial residual = 0.00778157, Final residual = 9.10526e-05, No Iterations 1
DILUPBiCGStab:  Solving for Uz, Initial residual = 0.00605682, Final residual = 6.32429e-05, No Iterations 1
DICPCG:  Solving for G, Initial residual = 9.6688e-05, Final residual = 9.21858e-06, No Iterations 19
DILUPBiCGStab:  Solving for h, Initial residual = 0.00055102, Final residual = 4.67328e-06, No Iterations 1
DICPCG:  Solving for p_rgh, Initial residual = 0.00733775, Final residual = 7.3259e-05, No Iterations 46
time step continuity errors : sum local = 8.73231e-07, global = -5.60634e-17, cumulative = 2.67346e-16
DILUPBiCGStab:  Solving for epsilon, Initial residual = 0.0170477, Final residual = 0.000746062, No Iterations 1
DILUPBiCGStab:  Solving for k, Initial residual = 0.0100781, Final residual = 0.000465262, No Iterations 1
ExecutionTime = 3.41 s  ClockTime = 4 s

Time = 60

DILUPBiCGStab:  Solving for Ux, Initial residual = 0.00812372, Final residual = 9.96483e-05, No Iterations 1
DILUPBiCGStab:  Solving for Uy, Initial residual = 0.007713, Final residual = 9.02802e-05, No Iterations 1
DILUPBiCGStab:  Solving for Uz, Initial residual = 0.00599995, Final residual = 6.27033e-05, No Iterations 1
DICPCG:  Solving for G, Initial residual = 9.68486e-05, Final residual = 9.18936e-06, No Iterations 19
DILUPBiCGStab:  Solving for h, Initial residual = 0.00055186, Final residual = 4.66858e-06, No Iterations 1
DICPCG:  Solving for p_rgh, Initial residual = 0.00730334, Final residual = 7.27925e-05, No Iterations 57
time step continuity errors : sum local = 8.73271e-07, global = -8.76109e-17, cumulative = 1.79735e-16
DILUPBiCGStab:  Solving for epsilon, Initial residual = 0.0172428, Final residual = 0.000757561, No Iterations 1
DILUPBiCGStab:  Solving for k, Initial residual = 0.0100337, Final residual = 0.000464501, No Iterations 1
ExecutionTime = 3.46 s  ClockTime = 4 s

Time = 61

DILUPBiCGStab:  Solving for Ux, Initial residual = 0.00804548, Final residual = 9.87015e-05, No Iterations 1
DILUPBiCGStab:  Solving for Uy, Initial residual = 0.00765064, Final residual = 8.96343e-05, No Iterations 1
DILUPBiCGStab:  Solving for Uz, Initial residual = 0.00593981, Final residual = 6.21409e-05, No Iterations 1
DICPCG:  Solving for G, Initial residual = 9.69363e-05, Final residual = 9.2405e-06, No Iterations 19
DILUPBiCGStab:  Solving for h, Initial residual = 0.000552768, Final residual = 4.66426e-06, No Iterations 1
DICPCG:  Solving for p_rgh, Initial residual = 0.0072832, Final residual = 6.8054e-05, No Iterations 47
time step continuity errors : sum local = 8.21755e-07, global = 4.17913e-17, cumulative = 2.21527e-16
DILUPBiCGStab:  Solving for epsilon, Initial residual = 0.0174351, Final residual = 0.000768956, No Iterations 1
DILUPBiCGStab:  Solving for k, Initial residual = 0.00999055, Final residual = 0.000463773, No Iterations 1
ExecutionTime = 3.51 s  ClockTime = 4 s

Time = 62

DILUPBiCGStab:  Solving for Ux, Initial residual = 0.0079614, Final residual = 9.76792e-05, No Iterations 1
DILUPBiCGStab:  Solving for Uy, Initial residual = 0.00758422, Final residual = 8.8896e-05, No Iterations 1
DILUPBiCGStab:  Solving for Uz, Initial residual = 0.00588567, Final residual = 6.16234e-05, No Iterations 1
DICPCG:  Solving for G, Initial residual = 9.71401e-05, Final residual = 9.20487e-06, No Iterations 19
DILUPBiCGStab:  Solving for h, Initial residual = 0.000553702, Final residual = 4.65993e-06, No Iterations 1
DICPCG:  Solving for p_rgh, Initial residual = 0.00725705, Final residual = 6.86111e-05, No Iterations 58
time step continuity errors : sum local = 8.33832e-07, global = 4.82271e-17, cumulative = 2.69754e-16
DILUPBiCGStab:  Solving for epsilon, Initial residual = 0.0176247, Final residual = 0.000780244, No Iterations 1
DILUPBiCGStab:  Solving for k, Initial residual = 0.00994866, Final residual = 0.000463075, No Iterations 1
ExecutionTime = 3.57 s  ClockTime = 4 s

Time = 63

DILUPBiCGStab:  Solving for Ux, Initial residual = 0.00788675, Final residual = 9.67597e-05, No Iterations 1
DILUPBiCGStab:  Solving for Uy, Initial residual = 0.00752329, Final residual = 8.82573e-05, No Iterations 1
DILUPBiCGStab:  Solving for Uz, Initial residual = 0.00582912, Final residual = 6.10912e-05, No Iterations 1
DICPCG:  Solving for G, Initial residual = 9.72669e-05, Final residual = 9.26366e-06, No Iterations 19
DILUPBiCGStab:  Solving for h, Initial residual = 0.00055466, Final residual = 4.65558e-06, No Iterations 1
DICPCG:  Solving for p_rgh, Initial residual = 0.00723063, Final residual = 7.18696e-05, No Iterations 45
time step continuity errors : sum local = 8.78984e-07, global = -2.41238e-17, cumulative = 2.4563e-16
DILUPBiCGStab:  Solving for epsilon, Initial residual = 0.0178115, Final residual = 0.000791427, No Iterations 1
DILUPBiCGStab:  Solving for k, Initial residual = 0.00990797, Final residual = 0.000462405, No Iterations 1
ExecutionTime = 3.62 s  ClockTime = 4 s

Time = 64

DILUPBiCGStab:  Solving for Ux, Initial residual = 0.00780666, Final residual = 9.57819e-05, No Iterations 1
DILUPBiCGStab:  Solving for Uy, Initial residual = 0.00746021, Final residual = 8.75337e-05, No Iterations 1
DILUPBiCGStab:  Solving for Uz, Initial residual = 0.00577743, Final residual = 6.05895e-05, No Iterations 1
DICPCG:  Solving for G, Initial residual = 9.75412e-05, Final residual = 9.21813e-06, No Iterations 19
DILUPBiCGStab:  Solving for h, Initial residual = 0.000555684, Final residual = 4.65145e-06, No Iterations 1
DICPCG:  Solving for p_rgh, Initial residual = 0.00719242, Final residual = 6.92913e-05, No Iterations 58
time step continuity errors : sum local = 8.52813e-07, global = -1.0973e-17, cumulative = 2.34657e-16
DILUPBiCGStab:  Solving for epsilon, Initial residual = 0.0179955, Final residual = 0.000802501, No Iterations 1
DILUPBiCGStab:  Solving for k, Initial residual = 0.00986841, Final residual = 0.000461762, No Iterations 1
ExecutionTime = 3.67 s  ClockTime = 4 s

Time = 65

DILUPBiCGStab:  Solving for Ux, Initial residual = 0.0077361, Final residual = 9.49324e-05, No Iterations 1
DILUPBiCGStab:  Solving for Uy, Initial residual = 0.00740344, Final residual = 8.69439e-05, No Iterations 1
DILUPBiCGStab:  Solving for Uz, Initial residual = 0.00572161, Final residual = 6.00476e-05, No Iterations 1
DICPCG:  Solving for G, Initial residual = 9.78005e-05, Final residual = 9.2903e-06, No Iterations 19
DILUPBiCGStab:  Solving for h, Initial residual = 0.000556757, Final residual = 4.64761e-06, No Iterations 1
DICPCG:  Solving for p_rgh, Initial residual = 0.00715495, Final residual = 7.12585e-05, No Iterations 45
time step continuity errors : sum local = 8.82625e-07, global = -4.30128e-17, cumulative = 1.91644e-16
DILUPBiCGStab:  Solving for epsilon, Initial residual = 0.0181767, Final residual = 0.000813469, No Iterations 1
DILUPBiCGStab:  Solving for k, Initial residual = 0.00982995, Final residual = 0.000461143, No Iterations 1
ExecutionTime = 3.73 s  ClockTime = 4 s

Time = 66

DILUPBiCGStab:  Solving for Ux, Initial residual = 0.00765979, Final residual = 9.39848e-05, No Iterations 1
DILUPBiCGStab:  Solving for Uy, Initial residual = 0.00734227, Final residual = 8.62365e-05, No Iterations 1
DILUPBiCGStab:  Solving for Uz, Initial residual = 0.00567237, Final residual = 5.9567e-05, No Iterations 1
DICPCG:  Solving for G, Initial residual = 9.81993e-05, Final residual = 9.23821e-06, No Iterations 19
DILUPBiCGStab:  Solving for h, Initial residual = 0.000557858, Final residual = 4.64421e-06, No Iterations 1
DICPCG:  Solving for p_rgh, Initial residual = 0.00712917, Final residual = 6.9188e-05, No Iterations 58
time step continuity errors : sum local = 8.62473e-07, global = -6.76472e-18, cumulative = 1.8488e-16
DILUPBiCGStab:  Solving for epsilon, Initial residual = 0.0183553, Final residual = 0.000824329, No Iterations 1
DILUPBiCGStab:  Solving for k, Initial residual = 0.00979252, Final residual = 0.000460548, No Iterations 1
ExecutionTime = 3.78 s  ClockTime = 4 s

Time = 67

DILUPBiCGStab:  Solving for Ux, Initial residual = 0.00759211, Final residual = 9.31565e-05, No Iterations 1
DILUPBiCGStab:  Solving for Uy, Initial residual = 0.00728739, Final residual = 8.56535e-05, No Iterations 1
DILUPBiCGStab:  Solving for Uz, Initial residual = 0.00561928, Final residual = 5.90473e-05, No Iterations 1
DICPCG:  Solving for G, Initial residual = 9.84569e-05, Final residual = 9.34352e-06, No Iterations 19
DILUPBiCGStab:  Solving for h, Initial residual = 0.000558972, Final residual = 4.64151e-06, No Iterations 1
DICPCG:  Solving for p_rgh, Initial residual = 0.00711891, Final residual = 6.96235e-05, No Iterations 45
time step continuity errors : sum local = 8.73424e-07, global = 7.24887e-17, cumulative = 2.57368e-16
DILUPBiCGStab:  Solving for epsilon, Initial residual = 0.018531, Final residual = 0.000835076, No Iterations 1
DILUPBiCGStab:  Solving for k, Initial residual = 0.00975608, Final residual = 0.000459974, No Iterations 1
ExecutionTime = 3.84 s  ClockTime = 4 s

Time = 68

DILUPBiCGStab:  Solving for Ux, Initial residual = 0.00751968, Final residual = 9.2253e-05, No Iterations 1
DILUPBiCGStab:  Solving for Uy, Initial residual = 0.00722908, Final residual = 8.4965e-05, No Iterations 1
DILUPBiCGStab:  Solving for Uz, Initial residual = 0.00557194, Final residual = 5.85786e-05, No Iterations 1
DICPCG:  Solving for G, Initial residual = 9.88519e-05, Final residual = 9.32005e-06, No Iterations 19
DILUPBiCGStab:  Solving for h, Initial residual = 0.000560094, Final residual = 4.63906e-06, No Iterations 1
DICPCG:  Solving for p_rgh, Initial residual = 0.00710071, Final residual = 6.78291e-05, No Iterations 58
time step continuity errors : sum local = 8.56322e-07, global = -4.80243e-17, cumulative = 2.09344e-16
DILUPBiCGStab:  Solving for epsilon, Initial residual = 0.0187039, Final residual = 0.000845711, No Iterations 1
DILUPBiCGStab:  Solving for k, Initial residual = 0.00972058, Final residual = 0.000459421, No Iterations 1
ExecutionTime = 3.9 s  ClockTime = 4 s

Time = 69

DILUPBiCGStab:  Solving for Ux, Initial residual = 0.00745505, Final residual = 9.14589e-05, No Iterations 1
DILUPBiCGStab:  Solving for Uy, Initial residual = 0.00717673, Final residual = 8.44037e-05, No Iterations 1
DILUPBiCGStab:  Solving for Uz, Initial residual = 0.0055207, Final residual = 5.80715e-05, No Iterations 1
DICPCG:  Solving for G, Initial residual = 9.91085e-05, Final residual = 9.44662e-06, No Iterations 19
DILUPBiCGStab:  Solving for h, Initial residual = 0.000561233, Final residual = 4.63687e-06, No Iterations 1
DICPCG:  Solving for p_rgh, Initial residual = 0.00706855, Final residual = 6.88179e-05, No Iterations 45
time step continuity errors : sum local = 8.74274e-07, global = 4.52885e-17, cumulative = 2.54633e-16
DILUPBiCGStab:  Solving for epsilon, Initial residual = 0.018874, Final residual = 0.00085623, No Iterations 1
DILUPBiCGStab:  Solving for k, Initial residual = 0.00968598, Final residual = 0.000458886, No Iterations 1
ExecutionTime = 3.95 s  ClockTime = 4 s

Time = 70

DILUPBiCGStab:  Solving for Ux, Initial residual = 0.00738613, Final residual = 9.05977e-05, No Iterations 1
DILUPBiCGStab:  Solving for Uy, Initial residual = 0.00712066, Final residual = 8.37378e-05, No Iterations 1
DILUPBiCGStab:  Solving for Uz, Initial residual = 0.00547508, Final residual = 5.76138e-05, No Iterations 1
DICPCG:  Solving for G, Initial residual = 9.9451e-05, Final residual = 9.46087e-06, No Iterations 19
DILUPBiCGStab:  Solving for h, Initial residual = 0.000562375, Final residual = 4.63495e-06, No Iterations 1
DICPCG:  Solving for p_rgh, Initial residual = 0.00710672, Final residual = 7.06934e-05, No Iterations 57
time step continuity errors : sum local = 9.03668e-07, global = -6.49383e-17, cumulative = 1.89694e-16
DILUPBiCGStab:  Solving for epsilon, Initial residual = 0.0190412, Final residual = 0.000866629, No Iterations 1
DILUPBiCGStab:  Solving for k, Initial residual = 0.00965225, Final residual = 0.000458369, No Iterations 1
ExecutionTime = 4 s  ClockTime = 4 s

Time = 71

DILUPBiCGStab:  Solving for Ux, Initial residual = 0.00732412, Final residual = 8.98362e-05, No Iterations 1
DILUPBiCGStab:  Solving for Uy, Initial residual = 0.00707037, Final residual = 8.31832e-05, No Iterations 1
DILUPBiCGStab:  Solving for Uz, Initial residual = 0.00542561, Final residual = 5.7116e-05, No Iterations 1
DICPCG:  Solving for G, Initial residual = 9.96622e-05, Final residual = 9.50461e-06, No Iterations 19
DILUPBiCGStab:  Solving for h, Initial residual = 0.000563549, Final residual = 4.63314e-06, No Iterations 1
DICPCG:  Solving for p_rgh, Initial residual = 0.00714396, Final residual = 6.87908e-05, No Iterations 45
time step continuity errors : sum local = 8.8473e-07, global = -3.87214e-18, cumulative = 1.85822e-16
DILUPBiCGStab:  Solving for epsilon, Initial residual = 0.0192057, Final residual = 0.000876908, No Iterations 1
DILUPBiCGStab:  Solving for k, Initial residual = 0.00961935, Final residual = 0.000457868, No Iterations 1
ExecutionTime = 4.06 s  ClockTime = 5 s

Time = 72

DILUPBiCGStab:  Solving for Ux, Initial residual = 0.00725845, Final residual = 8.89989e-05, No Iterations 1
DILUPBiCGStab:  Solving for Uy, Initial residual = 0.00701566, Final residual = 8.25315e-05, No Iterations 1
DILUPBiCGStab:  Solving for Uz, Initial residual = 0.0053821, Final residual = 5.66702e-05, No Iterations 1
DICPCG:  Solving for G, Initial residual = 9.99803e-05, Final residual = 9.48726e-06, No Iterations 19
DILUPBiCGStab:  Solving for h, Initial residual = 0.000564762, Final residual = 4.63121e-06, No Iterations 1
DICPCG:  Solving for p_rgh, Initial residual = 0.00716719, Final residual = 7.08847e-05, No Iterations 57
time step continuity errors : sum local = 9.17417e-07, global = -6.88325e-17, cumulative = 1.1699e-16
DILUPBiCGStab:  Solving for epsilon, Initial residual = 0.0193672, Final residual = 0.000887065, No Iterations 1
DILUPBiCGStab:  Solving for k, Initial residual = 0.00958724, Final residual = 0.000457384, No Iterations 1
ExecutionTime = 4.12 s  ClockTime = 5 s

Time = 73

DILUPBiCGStab:  Solving for Ux, Initial residual = 0.00719883, Final residual = 8.82631e-05, No Iterations 1
DILUPBiCGStab:  Solving for Uy, Initial residual = 0.00696726, Final residual = 8.19915e-05, No Iterations 1
DILUPBiCGStab:  Solving for Uz, Initial residual = 0.0053344, Final residual = 5.61801e-05, No Iterations 1
DICPCG:  Solving for G, Initial residual = 0.000100201, Final residual = 9.53134e-06, No Iterations 19
DILUPBiCGStab:  Solving for h, Initial residual = 0.000566004, Final residual = 4.62937e-06, No Iterations 1
DICPCG:  Solving for p_rgh, Initial residual = 0.00715434, Final residual = 6.99646e-05, No Iterations 44
time step continuity errors : sum local = 9.11227e-07, global = -7.29682e-18, cumulative = 1.09693e-16
DILUPBiCGStab:  Solving for epsilon, Initial residual = 0.0195257, Final residual = 0.000897098, No Iterations 1
DILUPBiCGStab:  Solving for k, Initial residual = 0.00955591, Final residual = 0.000456914, No Iterations 1
ExecutionTime = 4.17 s  ClockTime = 5 s

Time = 74

DILUPBiCGStab:  Solving for Ux, Initial residual = 0.00713599, Final residual = 8.74582e-05, No Iterations 1
DILUPBiCGStab:  Solving for Uy, Initial residual = 0.00691483, Final residual = 8.13552e-05, No Iterations 1
DILUPBiCGStab:  Solving for Uz, Initial residual = 0.0052927, Final residual = 5.57469e-05, No Iterations 1
DICPCG:  Solving for G, Initial residual = 0.000100571, Final residual = 9.51284e-06, No Iterations 19
DILUPBiCGStab:  Solving for h, Initial residual = 0.000567267, Final residual = 4.62776e-06, No Iterations 1
DICPCG:  Solving for p_rgh, Initial residual = 0.00711997, Final residual = 7.07581e-05, No Iterations 57
time step continuity errors : sum local = 9.27253e-07, global = 2.91567e-17, cumulative = 1.3885e-16
DILUPBiCGStab:  Solving for epsilon, Initial residual = 0.0196812, Final residual = 0.000906997, No Iterations 1
DILUPBiCGStab:  Solving for k, Initial residual = 0.00952532, Final residual = 0.000456459, No Iterations 1
ExecutionTime = 4.24 s  ClockTime = 5 s

Time = 75

DILUPBiCGStab:  Solving for Ux, Initial residual = 0.00707898, Final residual = 8.67603e-05, No Iterations 1
DILUPBiCGStab:  Solving for Uy, Initial residual = 0.00686839, Final residual = 8.08336e-05, No Iterations 1
DILUPBiCGStab:  Solving for Uz, Initial residual = 0.00524616, Final residual = 5.52577e-05, No Iterations 1
DICPCG:  Solving for G, Initial residual = 0.00010081, Final residual = 9.5613e-06, No Iterations 19
DILUPBiCGStab:  Solving for h, Initial residual = 0.000568526, Final residual = 4.62622e-06, No Iterations 1
DICPCG:  Solving for p_rgh, Initial residual = 0.00712343, Final residual = 6.87522e-05, No Iterations 44
time step continuity errors : sum local = 9.06357e-07, global = -9.10999e-17, cumulative = 4.77497e-17
DILUPBiCGStab:  Solving for epsilon, Initial residual = 0.0198338, Final residual = 0.000916765, No Iterations 1
DILUPBiCGStab:  Solving for k, Initial residual = 0.00949544, Final residual = 0.000456017, No Iterations 1
ExecutionTime = 4.29 s  ClockTime = 5 s

Time = 76

DILUPBiCGStab:  Solving for Ux, Initial residual = 0.00701885, Final residual = 8.59799e-05, No Iterations 1
DILUPBiCGStab:  Solving for Uy, Initial residual = 0.00681756, Final residual = 8.02092e-05, No Iterations 1
DILUPBiCGStab:  Solving for Uz, Initial residual = 0.00520596, Final residual = 5.48356e-05, No Iterations 1
DICPCG:  Solving for G, Initial residual = 0.000101185, Final residual = 9.56187e-06, No Iterations 19
DILUPBiCGStab:  Solving for h, Initial residual = 0.000569803, Final residual = 4.6246e-06, No Iterations 1
DICPCG:  Solving for p_rgh, Initial residual = 0.00710301, Final residual = 7.03867e-05, No Iterations 57
time step continuity errors : sum local = 9.33327e-07, global = -6.12984e-17, cumulative = -1.35487e-17
DILUPBiCGStab:  Solving for epsilon, Initial residual = 0.0199835, Final residual = 0.000926401, No Iterations 1
DILUPBiCGStab:  Solving for k, Initial residual = 0.00946622, Final residual = 0.000455587, No Iterations 1
ExecutionTime = 4.35 s  ClockTime = 5 s

Time = 77
[...]
time step continuity errors : sum local = 8.62699e-07, global = -3.46543e-16, cumulative = 1.2871e-15
DILUPBiCGStab:  Solving for epsilon, Initial residual = 0.000549703, Final residual = 3.06778e-05, No Iterations 1
DILUPBiCGStab:  Solving for k, Initial residual = 0.0009123, Final residual = 5.34699e-05, No Iterations 1
ExecutionTime = 49.25 s  ClockTime = 50 s

Time = 834

DILUPBiCGStab:  Solving for Ux, Initial residual = 0.000429658, Final residual = 7.34318e-06, No Iterations 1
DILUPBiCGStab:  Solving for Uy, Initial residual = 0.000738802, Final residual = 1.16803e-05, No Iterations 1
DILUPBiCGStab:  Solving for Uz, Initial residual = 0.00105014, Final residual = 1.36221e-05, No Iterations 1
DICPCG:  Solving for G, Initial residual = 7.80755e-05, Final residual = 8.25831e-06, No Iterations 19
DILUPBiCGStab:  Solving for h, Initial residual = 0.000635298, Final residual = 9.95618e-06, No Iterations 1
DICPCG:  Solving for p_rgh, Initial residual = 0.00203916, Final residual = 2.01489e-05, No Iterations 34
time step continuity errors : sum local = 8.82355e-07, global = 9.38554e-17, cumulative = 1.38095e-15
DILUPBiCGStab:  Solving for epsilon, Initial residual = 0.000548415, Final residual = 3.0602e-05, No Iterations 1
DILUPBiCGStab:  Solving for k, Initial residual = 0.000911136, Final residual = 5.33951e-05, No Iterations 1
ExecutionTime = 49.3 s  ClockTime = 50 s

Time = 835

DILUPBiCGStab:  Solving for Ux, Initial residual = 0.000427375, Final residual = 7.30663e-06, No Iterations 1
DILUPBiCGStab:  Solving for Uy, Initial residual = 0.000738518, Final residual = 1.16787e-05, No Iterations 1
DILUPBiCGStab:  Solving for Uz, Initial residual = 0.00104702, Final residual = 1.35897e-05, No Iterations 1
DICPCG:  Solving for G, Initial residual = 7.79493e-05, Final residual = 8.33083e-06, No Iterations 19
DILUPBiCGStab:  Solving for h, Initial residual = 0.000634399, Final residual = 9.93933e-06, No Iterations 1
DICPCG:  Solving for p_rgh, Initial residual = 0.00202957, Final residual = 1.81668e-05, No Iterations 59
time step continuity errors : sum local = 7.95308e-07, global = 2.36932e-16, cumulative = 1.61788e-15
DILUPBiCGStab:  Solving for epsilon, Initial residual = 0.000547125, Final residual = 3.05259e-05, No Iterations 1
DILUPBiCGStab:  Solving for k, Initial residual = 0.000909997, Final residual = 5.33206e-05, No Iterations 1
ExecutionTime = 49.36 s  ClockTime = 50 s

Time = 836

DILUPBiCGStab:  Solving for Ux, Initial residual = 0.000425053, Final residual = 7.2748e-06, No Iterations 1
DILUPBiCGStab:  Solving for Uy, Initial residual = 0.000737814, Final residual = 1.16674e-05, No Iterations 1
DILUPBiCGStab:  Solving for Uz, Initial residual = 0.00104389, Final residual = 1.35582e-05, No Iterations 1
DICPCG:  Solving for G, Initial residual = 7.78921e-05, Final residual = 8.25275e-06, No Iterations 19
DILUPBiCGStab:  Solving for h, Initial residual = 0.000633514, Final residual = 9.92288e-06, No Iterations 1
DICPCG:  Solving for p_rgh, Initial residual = 0.00201644, Final residual = 1.96347e-05, No Iterations 40
time step continuity errors : sum local = 8.59288e-07, global = 1.18153e-16, cumulative = 1.73604e-15
DILUPBiCGStab:  Solving for epsilon, Initial residual = 0.000545839, Final residual = 3.04499e-05, No Iterations 1
DILUPBiCGStab:  Solving for k, Initial residual = 0.000908851, Final residual = 5.32445e-05, No Iterations 1
ExecutionTime = 49.42 s  ClockTime = 50 s

Time = 837

DILUPBiCGStab:  Solving for Ux, Initial residual = 0.000422789, Final residual = 7.23859e-06, No Iterations 1
DILUPBiCGStab:  Solving for Uy, Initial residual = 0.000737513, Final residual = 1.16655e-05, No Iterations 1
DILUPBiCGStab:  Solving for Uz, Initial residual = 0.00104045, Final residual = 1.35197e-05, No Iterations 1
DICPCG:  Solving for G, Initial residual = 7.77687e-05, Final residual = 8.31244e-06, No Iterations 19
DILUPBiCGStab:  Solving for h, Initial residual = 0.000632635, Final residual = 9.9068e-06, No Iterations 1
DICPCG:  Solving for p_rgh, Initial residual = 0.00201221, Final residual = 1.91317e-05, No Iterations 60
time step continuity errors : sum local = 8.36983e-07, global = -1.56207e-16, cumulative = 1.57983e-15
DILUPBiCGStab:  Solving for epsilon, Initial residual = 0.000544554, Final residual = 3.03737e-05, No Iterations 1
DILUPBiCGStab:  Solving for k, Initial residual = 0.000907723, Final residual = 5.31683e-05, No Iterations 1
ExecutionTime = 49.47 s  ClockTime = 50 s

Time = 838

DILUPBiCGStab:  Solving for Ux, Initial residual = 0.000420147, Final residual = 7.20271e-06, No Iterations 1
DILUPBiCGStab:  Solving for Uy, Initial residual = 0.000737065, Final residual = 1.16613e-05, No Iterations 1
DILUPBiCGStab:  Solving for Uz, Initial residual = 0.00103764, Final residual = 1.34878e-05, No Iterations 1
DICPCG:  Solving for G, Initial residual = 7.77073e-05, Final residual = 8.22689e-06, No Iterations 19
DILUPBiCGStab:  Solving for h, Initial residual = 0.00063177, Final residual = 9.89117e-06, No Iterations 1
DICPCG:  Solving for p_rgh, Initial residual = 0.00200517, Final residual = 1.97395e-05, No Iterations 34
time step continuity errors : sum local = 8.63212e-07, global = 2.557e-16, cumulative = 1.83553e-15
DILUPBiCGStab:  Solving for epsilon, Initial residual = 0.000543274, Final residual = 3.02971e-05, No Iterations 1
DILUPBiCGStab:  Solving for k, Initial residual = 0.000906594, Final residual = 5.30905e-05, No Iterations 1
ExecutionTime = 49.53 s  ClockTime = 50 s

Time = 839

DILUPBiCGStab:  Solving for Ux, Initial residual = 0.000417931, Final residual = 7.16647e-06, No Iterations 1
DILUPBiCGStab:  Solving for Uy, Initial residual = 0.000736821, Final residual = 1.16606e-05, No Iterations 1
DILUPBiCGStab:  Solving for Uz, Initial residual = 0.00103458, Final residual = 1.34532e-05, No Iterations 1
DICPCG:  Solving for G, Initial residual = 7.75778e-05, Final residual = 8.27003e-06, No Iterations 19
DILUPBiCGStab:  Solving for h, Initial residual = 0.000630913, Final residual = 9.87578e-06, No Iterations 1
DICPCG:  Solving for p_rgh, Initial residual = 0.00201809, Final residual = 1.97012e-05, No Iterations 58
time step continuity errors : sum local = 8.61142e-07, global = 6.93273e-18, cumulative = 1.84246e-15
DILUPBiCGStab:  Solving for epsilon, Initial residual = 0.000541995, Final residual = 3.02211e-05, No Iterations 1
DILUPBiCGStab:  Solving for k, Initial residual = 0.000905485, Final residual = 5.30155e-05, No Iterations 1
ExecutionTime = 49.58 s  ClockTime = 50 s

Time = 840

DILUPBiCGStab:  Solving for Ux, Initial residual = 0.000415712, Final residual = 7.1353e-06, No Iterations 1
DILUPBiCGStab:  Solving for Uy, Initial residual = 0.000736067, Final residual = 1.16484e-05, No Iterations 1
DILUPBiCGStab:  Solving for Uz, Initial residual = 0.0010317, Final residual = 1.34218e-05, No Iterations 1
DICPCG:  Solving for G, Initial residual = 7.75213e-05, Final residual = 8.18521e-06, No Iterations 19
DILUPBiCGStab:  Solving for h, Initial residual = 0.000630074, Final residual = 9.8608e-06, No Iterations 1
DICPCG:  Solving for p_rgh, Initial residual = 0.0020294, Final residual = 1.98521e-05, No Iterations 40
time step continuity errors : sum local = 8.67289e-07, global = -4.16285e-17, cumulative = 1.80083e-15
DILUPBiCGStab:  Solving for epsilon, Initial residual = 0.000540723, Final residual = 3.01455e-05, No Iterations 1
DILUPBiCGStab:  Solving for k, Initial residual = 0.00090437, Final residual = 5.29399e-05, No Iterations 1
ExecutionTime = 49.64 s  ClockTime = 50 s

Time = 841

DILUPBiCGStab:  Solving for Ux, Initial residual = 0.000413512, Final residual = 7.09972e-06, No Iterations 1
DILUPBiCGStab:  Solving for Uy, Initial residual = 0.000735852, Final residual = 1.16477e-05, No Iterations 1
DILUPBiCGStab:  Solving for Uz, Initial residual = 0.00102819, Final residual = 1.33801e-05, No Iterations 1
DICPCG:  Solving for G, Initial residual = 7.74046e-05, Final residual = 8.2192e-06, No Iterations 19
DILUPBiCGStab:  Solving for h, Initial residual = 0.000629243, Final residual = 9.84605e-06, No Iterations 1
DICPCG:  Solving for p_rgh, Initial residual = 0.00204408, Final residual = 1.8647e-05, No Iterations 60
time step continuity errors : sum local = 8.14188e-07, global = -7.89217e-18, cumulative = 1.79294e-15
DILUPBiCGStab:  Solving for epsilon, Initial residual = 0.00053945, Final residual = 3.00696e-05, No Iterations 1
DILUPBiCGStab:  Solving for k, Initial residual = 0.000903265, Final residual = 5.28652e-05, No Iterations 1
ExecutionTime = 49.7 s  ClockTime = 50 s

Time = 842

DILUPBiCGStab:  Solving for Ux, Initial residual = 0.00041097, Final residual = 7.06504e-06, No Iterations 1
DILUPBiCGStab:  Solving for Uy, Initial residual = 0.000735354, Final residual = 1.16428e-05, No Iterations 1
DILUPBiCGStab:  Solving for Uz, Initial residual = 0.00102546, Final residual = 1.33454e-05, No Iterations 1
DICPCG:  Solving for G, Initial residual = 7.7346e-05, Final residual = 8.1651e-06, No Iterations 19
DILUPBiCGStab:  Solving for h, Initial residual = 0.000628427, Final residual = 9.8316e-06, No Iterations 1
DICPCG:  Solving for p_rgh, Initial residual = 0.002063, Final residual = 2.04425e-05, No Iterations 32
time step continuity errors : sum local = 8.92068e-07, global = -8.38386e-17, cumulative = 1.7091e-15
DILUPBiCGStab:  Solving for epsilon, Initial residual = 0.000538179, Final residual = 2.9994e-05, No Iterations 1
DILUPBiCGStab:  Solving for k, Initial residual = 0.000902153, Final residual = 5.27908e-05, No Iterations 1
ExecutionTime = 49.75 s  ClockTime = 51 s

Time = 843

DILUPBiCGStab:  Solving for Ux, Initial residual = 0.000408828, Final residual = 7.02954e-06, No Iterations 1
DILUPBiCGStab:  Solving for Uy, Initial residual = 0.000735146, Final residual = 1.16429e-05, No Iterations 1
DILUPBiCGStab:  Solving for Uz, Initial residual = 0.00102245, Final residual = 1.33045e-05, No Iterations 1
DICPCG:  Solving for G, Initial residual = 7.72283e-05, Final residual = 8.18912e-06, No Iterations 19
DILUPBiCGStab:  Solving for h, Initial residual = 0.000627616, Final residual = 9.81728e-06, No Iterations 1
DICPCG:  Solving for p_rgh, Initial residual = 0.00207317, Final residual = 2.0451e-05, No Iterations 36
time step continuity errors : sum local = 8.91956e-07, global = -5.68176e-17, cumulative = 1.65229e-15
DILUPBiCGStab:  Solving for epsilon, Initial residual = 0.000536912, Final residual = 2.99182e-05, No Iterations 1
DILUPBiCGStab:  Solving for k, Initial residual = 0.00090105, Final residual = 5.27189e-05, No Iterations 1
ExecutionTime = 49.82 s  ClockTime = 51 s

Time = 844

DILUPBiCGStab:  Solving for Ux, Initial residual = 0.000406983, Final residual = 6.99998e-06, No Iterations 1
DILUPBiCGStab:  Solving for Uy, Initial residual = 0.000734435, Final residual = 1.16295e-05, No Iterations 1
DILUPBiCGStab:  Solving for Uz, Initial residual = 0.00101979, Final residual = 1.32771e-05, No Iterations 1
DICPCG:  Solving for G, Initial residual = 7.71648e-05, Final residual = 9.8959e-06, No Iterations 18
DILUPBiCGStab:  Solving for h, Initial residual = 0.000626815, Final residual = 9.80322e-06, No Iterations 1
DICPCG:  Solving for p_rgh, Initial residual = 0.00206984, Final residual = 2.06672e-05, No Iterations 60
time step continuity errors : sum local = 9.0093e-07, global = 8.34665e-17, cumulative = 1.73575e-15
DILUPBiCGStab:  Solving for epsilon, Initial residual = 0.000535641, Final residual = 2.98425e-05, No Iterations 1
DILUPBiCGStab:  Solving for k, Initial residual = 0.000899938, Final residual = 5.26473e-05, No Iterations 1
ExecutionTime = 49.87 s  ClockTime = 51 s

Time = 845

DILUPBiCGStab:  Solving for Ux, Initial residual = 0.000404267, Final residual = 6.96485e-06, No Iterations 1
DILUPBiCGStab:  Solving for Uy, Initial residual = 0.000734002, Final residual = 1.16245e-05, No Iterations 1
DILUPBiCGStab:  Solving for Uz, Initial residual = 0.00101688, Final residual = 1.32336e-05, No Iterations 1
DICPCG:  Solving for G, Initial residual = 7.76081e-05, Final residual = 8.41637e-06, No Iterations 19
DILUPBiCGStab:  Solving for h, Initial residual = 0.000626029, Final residual = 9.78951e-06, No Iterations 1
DICPCG:  Solving for p_rgh, Initial residual = 0.00206652, Final residual = 1.9395e-05, No Iterations 31
time step continuity errors : sum local = 8.45071e-07, global = 9.37595e-17, cumulative = 1.82951e-15
DILUPBiCGStab:  Solving for epsilon, Initial residual = 0.000534371, Final residual = 2.97663e-05, No Iterations 1
DILUPBiCGStab:  Solving for k, Initial residual = 0.000898823, Final residual = 5.25741e-05, No Iterations 1
ExecutionTime = 49.92 s  ClockTime = 51 s

Time = 846

DILUPBiCGStab:  Solving for Ux, Initial residual = 0.00040212, Final residual = 6.92845e-06, No Iterations 1
DILUPBiCGStab:  Solving for Uy, Initial residual = 0.000734006, Final residual = 1.16271e-05, No Iterations 1
DILUPBiCGStab:  Solving for Uz, Initial residual = 0.00101377, Final residual = 1.31864e-05, No Iterations 1
DICPCG:  Solving for G, Initial residual = 7.71318e-05, Final residual = 9.9129e-06, No Iterations 18
DILUPBiCGStab:  Solving for h, Initial residual = 0.000625248, Final residual = 9.77592e-06, No Iterations 1
DICPCG:  Solving for p_rgh, Initial residual = 0.00206175, Final residual = 1.9379e-05, No Iterations 34
time step continuity errors : sum local = 8.44007e-07, global = 7.15817e-17, cumulative = 1.90109e-15
DILUPBiCGStab:  Solving for epsilon, Initial residual = 0.000533112, Final residual = 2.96901e-05, No Iterations 1
DILUPBiCGStab:  Solving for k, Initial residual = 0.000897724, Final residual = 5.25016e-05, No Iterations 1
ExecutionTime = 49.97 s  ClockTime = 51 s

Time = 847

DILUPBiCGStab:  Solving for Ux, Initial residual = 0.000400421, Final residual = 6.8995e-06, No Iterations 1
DILUPBiCGStab:  Solving for Uy, Initial residual = 0.00073324, Final residual = 1.16132e-05, No Iterations 1
DILUPBiCGStab:  Solving for Uz, Initial residual = 0.00101123, Final residual = 1.31548e-05, No Iterations 1
DICPCG:  Solving for G, Initial residual = 7.74569e-05, Final residual = 8.1728e-06, No Iterations 19
DILUPBiCGStab:  Solving for h, Initial residual = 0.000624479, Final residual = 9.76257e-06, No Iterations 1
DICPCG:  Solving for p_rgh, Initial residual = 0.00205165, Final residual = 1.86621e-05, No Iterations 60
time step continuity errors : sum local = 8.12455e-07, global = -1.43099e-18, cumulative = 1.89966e-15
DILUPBiCGStab:  Solving for epsilon, Initial residual = 0.000531845, Final residual = 2.96137e-05, No Iterations 1
DILUPBiCGStab:  Solving for k, Initial residual = 0.000896617, Final residual = 5.24289e-05, No Iterations 1
ExecutionTime = 50.02 s  ClockTime = 51 s

Time = 848

DILUPBiCGStab:  Solving for Ux, Initial residual = 0.000397952, Final residual = 6.86661e-06, No Iterations 1
DILUPBiCGStab:  Solving for Uy, Initial residual = 0.000732724, Final residual = 1.16051e-05, No Iterations 1
DILUPBiCGStab:  Solving for Uz, Initial residual = 0.0010089, Final residual = 1.31212e-05, No Iterations 1
DICPCG:  Solving for G, Initial residual = 7.69371e-05, Final residual = 8.23348e-06, No Iterations 19
DILUPBiCGStab:  Solving for h, Initial residual = 0.000623719, Final residual = 9.74948e-06, No Iterations 1
DICPCG:  Solving for p_rgh, Initial residual = 0.00204237, Final residual = 1.99826e-05, No Iterations 32
time step continuity errors : sum local = 8.69624e-07, global = -3.07299e-16, cumulative = 1.59236e-15
DILUPBiCGStab:  Solving for epsilon, Initial residual = 0.000530582, Final residual = 2.95371e-05, No Iterations 1
DILUPBiCGStab:  Solving for k, Initial residual = 0.000895497, Final residual = 5.23546e-05, No Iterations 1
ExecutionTime = 50.08 s  ClockTime = 51 s

Time = 849

DILUPBiCGStab:  Solving for Ux, Initial residual = 0.000395828, Final residual = 6.83068e-06, No Iterations 1
DILUPBiCGStab:  Solving for Uy, Initial residual = 0.000732734, Final residual = 1.16086e-05, No Iterations 1
DILUPBiCGStab:  Solving for Uz, Initial residual = 0.00100581, Final residual = 1.30692e-05, No Iterations 1
DICPCG:  Solving for G, Initial residual = 7.682e-05, Final residual = 9.86617e-06, No Iterations 18
DILUPBiCGStab:  Solving for h, Initial residual = 0.000622962, Final residual = 9.73651e-06, No Iterations 1
DICPCG:  Solving for p_rgh, Initial residual = 0.00203751, Final residual = 1.82387e-05, No Iterations 59
time step continuity errors : sum local = 7.9346e-07, global = -4.42432e-18, cumulative = 1.58794e-15
DILUPBiCGStab:  Solving for epsilon, Initial residual = 0.000529321, Final residual = 2.94607e-05, No Iterations 1
DILUPBiCGStab:  Solving for k, Initial residual = 0.000894388, Final residual = 5.2281e-05, No Iterations 1
ExecutionTime = 50.13 s  ClockTime = 51 s

Time = 850

DILUPBiCGStab:  Solving for Ux, Initial residual = 0.000393824, Final residual = 6.80215e-06, No Iterations 1
DILUPBiCGStab:  Solving for Uy, Initial residual = 0.000731835, Final residual = 1.15931e-05, No Iterations 1
DILUPBiCGStab:  Solving for Uz, Initial residual = 0.00100373, Final residual = 1.30399e-05, No Iterations 1
DICPCG:  Solving for G, Initial residual = 7.73199e-05, Final residual = 8.2746e-06, No Iterations 19
DILUPBiCGStab:  Solving for h, Initial residual = 0.000622223, Final residual = 9.72386e-06, No Iterations 1
DICPCG:  Solving for p_rgh, Initial residual = 0.0020259, Final residual = 1.92761e-05, No Iterations 32
time step continuity errors : sum local = 8.38317e-07, global = 1.09847e-16, cumulative = 1.69779e-15
DILUPBiCGStab:  Solving for epsilon, Initial residual = 0.000528064, Final residual = 2.93849e-05, No Iterations 1
DILUPBiCGStab:  Solving for k, Initial residual = 0.00089327, Final residual = 5.22059e-05, No Iterations 1
ExecutionTime = 50.19 s  ClockTime = 51 s

Time = 851

DILUPBiCGStab:  Solving for Ux, Initial residual = 0.000391706, Final residual = 6.76647e-06, No Iterations 1
DILUPBiCGStab:  Solving for Uy, Initial residual = 0.000731829, Final residual = 1.15951e-05, No Iterations 1
DILUPBiCGStab:  Solving for Uz, Initial residual = 0.00100084, Final residual = 1.29917e-05, No Iterations 1
DICPCG:  Solving for G, Initial residual = 7.67286e-05, Final residual = 9.99866e-06, No Iterations 18
DILUPBiCGStab:  Solving for h, Initial residual = 0.000621487, Final residual = 9.71132e-06, No Iterations 1
DICPCG:  Solving for p_rgh, Initial residual = 0.00201921, Final residual = 1.98765e-05, No Iterations 44
time step continuity errors : sum local = 8.64145e-07, global = -3.7596e-16, cumulative = 1.32183e-15
DILUPBiCGStab:  Solving for epsilon, Initial residual = 0.000526808, Final residual = 2.93092e-05, No Iterations 1
DILUPBiCGStab:  Solving for k, Initial residual = 0.000892166, Final residual = 5.21315e-05, No Iterations 1
ExecutionTime = 50.23 s  ClockTime = 51 s

Time = 852

DILUPBiCGStab:  Solving for Ux, Initial residual = 0.00038988, Final residual = 6.73814e-06, No Iterations 1
DILUPBiCGStab:  Solving for Uy, Initial residual = 0.000731233, Final residual = 1.15828e-05, No Iterations 1
DILUPBiCGStab:  Solving for Uz, Initial residual = 0.000998525, Final residual = 1.29589e-05, No Iterations 1
DICPCG:  Solving for G, Initial residual = 7.71918e-05, Final residual = 8.09028e-06, No Iterations 19
DILUPBiCGStab:  Solving for h, Initial residual = 0.000620765, Final residual = 9.69912e-06, No Iterations 1
DICPCG:  Solving for p_rgh, Initial residual = 0.00200857, Final residual = 1.88151e-05, No Iterations 59
time step continuity errors : sum local = 8.17737e-07, global = -1.20293e-16, cumulative = 1.20153e-15
DILUPBiCGStab:  Solving for epsilon, Initial residual = 0.00052555, Final residual = 2.9233e-05, No Iterations 1
DILUPBiCGStab:  Solving for k, Initial residual = 0.000891044, Final residual = 5.20552e-05, No Iterations 1
ExecutionTime = 50.29 s  ClockTime = 51 s


SIMPLE solution converged in 852 iterations

End

Finalising parallel run
